(PID.TID 0016.0001) 
(PID.TID 0016.0001) // ======================================================
(PID.TID 0016.0001) //                      MITgcm UV
(PID.TID 0016.0001) //                      =========
(PID.TID 0016.0001) // ======================================================
(PID.TID 0016.0001) // execution environment starting up...
(PID.TID 0016.0001) 
(PID.TID 0016.0001) // MITgcmUV version:  checkpoint69d
(PID.TID 0016.0001) // Build user:        cs185c15
(PID.TID 0016.0001) // Build host:        spartan03.cluster
(PID.TID 0016.0001) // Build date:        Thu May  1 12:10:17 PDT 2025
(PID.TID 0016.0001) 
(PID.TID 0016.0001) // =======================================================
(PID.TID 0016.0001) // Execution Environment parameter file "eedata"
(PID.TID 0016.0001) // =======================================================
(PID.TID 0016.0001) ># Example "eedata" file
(PID.TID 0016.0001) ># Lines beginning "#" are comments
(PID.TID 0016.0001) ># nTx - No. threads per process in X
(PID.TID 0016.0001) ># nTy - No. threads per process in Y
(PID.TID 0016.0001) > &EEPARMS
(PID.TID 0016.0001) > nTx=1,
(PID.TID 0016.0001) > nTy=1,
(PID.TID 0016.0001) > /
(PID.TID 0016.0001) ># Note: Some systems use & as the
(PID.TID 0016.0001) ># namelist terminator. Other systems
(PID.TID 0016.0001) ># use a / character (as shown here).
(PID.TID 0016.0001) 
(PID.TID 0016.0001) // =======================================================
(PID.TID 0016.0001) // Computational Grid Specification ( see files "SIZE.h" )
(PID.TID 0016.0001) //                                  ( and "eedata"       )
(PID.TID 0016.0001) // =======================================================
(PID.TID 0016.0001)      nPx =    1 ; /* No. processes in X */
(PID.TID 0016.0001)      nPy =   17 ; /* No. processes in Y */
(PID.TID 0016.0001)      nSx =    1 ; /* No. tiles in X per process */
(PID.TID 0016.0001)      nSy =    1 ; /* No. tiles in Y per process */
(PID.TID 0016.0001)      sNx =  300 ; /* Tile size in X */
(PID.TID 0016.0001)      sNy =   12 ; /* Tile size in Y */
(PID.TID 0016.0001)      OLx =    4 ; /* Tile overlap distance in X */
(PID.TID 0016.0001)      OLy =    4 ; /* Tile overlap distance in Y */
(PID.TID 0016.0001)      nTx =    1 ; /* No. threads in X per process */
(PID.TID 0016.0001)      nTy =    1 ; /* No. threads in Y per process */
(PID.TID 0016.0001)       Nr =   50 ; /* No. levels in the vertical   */
(PID.TID 0016.0001)       Nx =  300 ; /* Total domain size in X ( = nPx*nSx*sNx ) */
(PID.TID 0016.0001)       Ny =  204 ; /* Total domain size in Y ( = nPy*nSy*sNy ) */
(PID.TID 0016.0001)   nTiles =    1 ; /* Total no. tiles per process ( = nSx*nSy ) */
(PID.TID 0016.0001)   nProcs =   17 ; /* Total no. processes ( = nPx*nPy ) */
(PID.TID 0016.0001) nThreads =    1 ; /* Total no. threads per process ( = nTx*nTy ) */
(PID.TID 0016.0001) usingMPI =    T ; /* Flag used to control whether MPI is in use */
(PID.TID 0016.0001)                   /*  note: To execute a program with MPI calls */
(PID.TID 0016.0001)                   /*  it must be launched appropriately e.g     */
(PID.TID 0016.0001)                   /*  "mpirun -np 64 ......"                    */
(PID.TID 0016.0001) useCoupler=   F ; /* Flag used to control communications with   */
(PID.TID 0016.0001)                   /*  other model components, through a coupler */
(PID.TID 0016.0001) useNest2W_parent =    F ;/* Control 2-W Nesting comm */
(PID.TID 0016.0001) useNest2W_child  =    F ;/* Control 2-W Nesting comm */
(PID.TID 0016.0001) debugMode =    F ; /* print debug msg. (sequence of S/R calls)  */
(PID.TID 0016.0001) printMapIncludesZeros=    F ; /* print zeros in Std.Output maps */
(PID.TID 0016.0001) maxLengthPrt1D=   65 /* maxLength of 1D array printed to StdOut */
(PID.TID 0016.0001) 
(PID.TID 0016.0001) ======= Starting MPI parallel Run =========
(PID.TID 0016.0001)  My Processor Name (len: 14 ) = node08.cluster
(PID.TID 0016.0001)  Located at (  0, 16) on processor grid (0:  0,0: 16)
(PID.TID 0016.0001)  Origin at  (     1,   193) on global grid (1:   300,1:   204)
(PID.TID 0016.0001)  North neighbor = processor 0000
(PID.TID 0016.0001)  South neighbor = processor 0015
(PID.TID 0016.0001)   East neighbor = processor 0016
(PID.TID 0016.0001)   West neighbor = processor 0016
(PID.TID 0016.0001) // ======================================================
(PID.TID 0016.0001) // Mapping of tiles to threads
(PID.TID 0016.0001) // ======================================================
(PID.TID 0016.0001) // -o- Thread   1, tiles (   1:   1,   1:   1)
(PID.TID 0016.0001) 
(PID.TID 0016.0001) // ======================================================
(PID.TID 0016.0001) // Tile <-> Tile connectvity table
(PID.TID 0016.0001) // ======================================================
(PID.TID 0016.0001) // Tile number: 000017 (process no. = 000016)
(PID.TID 0016.0001) //        WEST: Tile = 000017, Process = 000016, Comm = put
(PID.TID 0016.0001) //                bi = 000001, bj = 000001
(PID.TID 0016.0001) //        EAST: Tile = 000017, Process = 000016, Comm = put
(PID.TID 0016.0001) //                bi = 000001, bj = 000001
(PID.TID 0016.0001) //       SOUTH: Tile = 000016, Process = 000015, Comm = messages
(PID.TID 0016.0001) //                bi = 000001, bj = 000001
(PID.TID 0016.0001) //       NORTH: Tile = 000001, Process = 000000, Comm = messages
(PID.TID 0016.0001) //                bi = 000001, bj = 000001
(PID.TID 0016.0001) 
(PID.TID 0016.0001)  INI_PARMS: opening model parameter file "data"
(PID.TID 0016.0001)  OPEN_COPY_DATA_FILE: opening file data
(PID.TID 0016.0001) // =======================================================
(PID.TID 0016.0001) // Parameter file "data"
(PID.TID 0016.0001) // =======================================================
(PID.TID 0016.0001) ># ====================
(PID.TID 0016.0001) ># | Model parameters |
(PID.TID 0016.0001) ># ====================
(PID.TID 0016.0001) >
(PID.TID 0016.0001) ># Continuous equation parameters
(PID.TID 0016.0001) > &PARM01
(PID.TID 0016.0001) > select_rStar=2,
(PID.TID 0016.0001) > nonlinFreeSurf=4,
(PID.TID 0016.0001) > implicitDiffusion=.TRUE.,
(PID.TID 0016.0001) > implicitViscosity=.TRUE.,
(PID.TID 0016.0001) > tempAdvScheme=7,
(PID.TID 0016.0001) > saltAdvScheme=7,
(PID.TID 0016.0001) > StaggerTimeStep=.TRUE.,
(PID.TID 0016.0001) > useSingleCPUio=.TRUE.,
(PID.TID 0016.0001) > exactConserv=.TRUE.,
(PID.TID 0016.0001) > useRealFreshWaterFlux=.TRUE.,
(PID.TID 0016.0001) > debugLevel=0,
(PID.TID 0016.0001) > /
(PID.TID 0016.0001) >
(PID.TID 0016.0001) ># Elliptic solver parameters
(PID.TID 0016.0001) > &PARM02
(PID.TID 0016.0001) > cg2dMaxIters=300,
(PID.TID 0016.0001) > cg2dTargetResidual=1.E-10,
(PID.TID 0016.0001) > /
(PID.TID 0016.0001) >
(PID.TID 0016.0001) ># Time stepping parameters
(PID.TID 0016.0001) > &PARM03
(PID.TID 0016.0001) > niter0=0,
(PID.TID 0016.0001) > deltaT=300.,
(PID.TID 0016.0001) > nTimeSteps = 105120,
(PID.TID 0016.0001) > pChkptFreq=2592000.,
(PID.TID 0016.0001) > dumpInitAndLast=.FALSE.,
(PID.TID 0016.0001) > writePickupAtEnd=.TRUE.,
(PID.TID 0016.0001) > /
(PID.TID 0016.0001) >
(PID.TID 0016.0001) ># Gridding parameters
(PID.TID 0016.0001) > &PARM04
(PID.TID 0016.0001) > usingSphericalPolarGrid=.TRUE.,
(PID.TID 0016.0001) > delX=300*0.083333,
(PID.TID 0016.0001) > delY=204*0.083333,
(PID.TID 0016.0001) > xgOrigin=110,
(PID.TID 0016.0001) > ygOrigin=3,
(PID.TID 0016.0001) > delR = 10.00, 10.00, 10.00, 10.00, 10.00, 10.00, 10.00, 10.01,
(PID.TID 0016.0001) >        10.03, 10.11, 10.32, 10.80, 11.76, 13.42, 16.04, 19.82, 24.85,
(PID.TID 0016.0001) >        31.10, 38.42, 46.50, 55.00, 63.50, 71.58, 78.90, 85.15, 90.18,
(PID.TID 0016.0001) >        93.96, 96.58, 98.25, 99.25,100.01,101.33,104.56,111.33,122.83,
(PID.TID 0016.0001) >        139.09,158.94,180.83,203.55,226.50,249.50,272.50,295.50,318.50,
(PID.TID 0016.0001) >        341.50,364.50,387.50,410.50,433.50,456.50,
(PID.TID 0016.0001) > /
(PID.TID 0016.0001) >
(PID.TID 0016.0001) ># Input datasets
(PID.TID 0016.0001) > &PARM05
(PID.TID 0016.0001) > bathyFile = 'CA_bathymetry.bin',
(PID.TID 0016.0001) > hydrogThetaFile = 'THETA_IC.bin',
(PID.TID 0016.0001) > hydrogSaltFile = 'SALT_IC.bin',
(PID.TID 0016.0001) > uVelInitFile = 'UVEL_IC.bin',
(PID.TID 0016.0001) > vVelInitFile = 'VVEL_IC.bin',
(PID.TID 0016.0001) > pSurfInitFile = 'ETAN_IC.bin',
(PID.TID 0016.0001) > /
(PID.TID 0016.0001) 
(PID.TID 0016.0001)  INI_PARMS ; starts to read PARM01
(PID.TID 0016.0001)  INI_PARMS ; read PARM01 : OK
(PID.TID 0016.0001) S/R INI_PARMS: No request for barotropic solver
(PID.TID 0016.0001) S/R INI_PARMS: => Use implicitFreeSurface as default
(PID.TID 0016.0001)  INI_PARMS ; starts to read PARM02
(PID.TID 0016.0001)  INI_PARMS ; read PARM02 : OK
(PID.TID 0016.0001)  INI_PARMS ; starts to read PARM03
(PID.TID 0016.0001)  INI_PARMS ; read PARM03 : OK
(PID.TID 0016.0001)  INI_PARMS ; starts to read PARM04
(PID.TID 0016.0001)  INI_PARMS ; read PARM04 : OK
(PID.TID 0016.0001)  INI_PARMS ; starts to read PARM05
(PID.TID 0016.0001)  INI_PARMS ; read PARM05 : OK
(PID.TID 0016.0001)  INI_PARMS: finished reading file "data"
(PID.TID 0016.0001)  PACKAGES_BOOT: opening data.pkg
(PID.TID 0016.0001)  OPEN_COPY_DATA_FILE: opening file data.pkg
(PID.TID 0016.0001) // =======================================================
(PID.TID 0016.0001) // Parameter file "data.pkg"
(PID.TID 0016.0001) // =======================================================
(PID.TID 0016.0001) ># Packages
(PID.TID 0016.0001) > &PACKAGES
(PID.TID 0016.0001) > useCAL         = .TRUE.,
(PID.TID 0016.0001) > useEXF         = .TRUE.,
(PID.TID 0016.0001) > useOBCS        = .TRUE.,
(PID.TID 0016.0001) > useKPP         = .TRUE.,
(PID.TID 0016.0001) > useDIAGNOSTICS = .TRUE.,
(PID.TID 0016.0001) > /
(PID.TID 0016.0001) 
(PID.TID 0016.0001)  PACKAGES_BOOT: finished reading data.pkg
(PID.TID 0016.0001)  PACKAGES_BOOT: On/Off package Summary
 --------  pkgs with a standard "usePKG" On/Off switch in "data.pkg":  --------
 pkg/obcs                 compiled   and   used ( useOBCS                  = T )
 pkg/kpp                  compiled   and   used ( useKPP                   = T )
 pkg/cal                  compiled   and   used ( useCAL                   = T )
 pkg/exf                  compiled   and   used ( useEXF                   = T )
 pkg/diagnostics          compiled   and   used ( useDiagnostics           = T )
 -------- pkgs without standard "usePKG" On/Off switch in "data.pkg":  --------
 pkg/generic_advdiff      compiled   and   used ( useGAD                   = T )
 pkg/mom_common           compiled   and   used ( momStepping              = T )
 pkg/mom_vecinv           compiled but not used ( +vectorInvariantMomentum = F )
 pkg/mom_fluxform         compiled   and   used ( & not vectorInvariantMom = T )
 pkg/monitor              compiled   and   used ( monitorFreq > 0.         = T )
 pkg/debug                compiled but not used ( debugMode                = F )
 pkg/rw                   compiled   and   used
 pkg/mdsio                compiled   and   used
(PID.TID 0016.0001)  PACKAGES_BOOT: End of package Summary
(PID.TID 0016.0001) 
(PID.TID 0016.0001) CAL_READPARMS: opening data.cal
(PID.TID 0016.0001)  OPEN_COPY_DATA_FILE: opening file data.cal
(PID.TID 0016.0001) // =======================================================
(PID.TID 0016.0001) // Parameter file "data.cal"
(PID.TID 0016.0001) // =======================================================
(PID.TID 0016.0001) >#
(PID.TID 0016.0001) ># *******************
(PID.TID 0016.0001) ># Calendar Parameters
(PID.TID 0016.0001) ># *******************
(PID.TID 0016.0001) > &CAL_NML
(PID.TID 0016.0001) > TheCalendar='gregorian',
(PID.TID 0016.0001) > startDate_1=19970116,
(PID.TID 0016.0001) > startDate_2=000000,
(PID.TID 0016.0001) > calendarDumps = .TRUE.,
(PID.TID 0016.0001) > /
(PID.TID 0016.0001) 
(PID.TID 0016.0001) CAL_READPARMS: finished reading data.cal
(PID.TID 0016.0001) EXF_READPARMS: opening data.exf
(PID.TID 0016.0001)  OPEN_COPY_DATA_FILE: opening file data.exf
(PID.TID 0016.0001) // =======================================================
(PID.TID 0016.0001) // Parameter file "data.exf"
(PID.TID 0016.0001) // =======================================================
(PID.TID 0016.0001) ># *********************
(PID.TID 0016.0001) ># External Forcing Data
(PID.TID 0016.0001) ># *********************
(PID.TID 0016.0001) >
(PID.TID 0016.0001) > &EXF_NML_01
(PID.TID 0016.0001) > exf_albedo        = 0.1,
(PID.TID 0016.0001) ># useExfZenIncoming = .TRUE.,
(PID.TID 0016.0001) ># select_ZenAlbedo  = 1,
(PID.TID 0016.0001) > useExfYearlyFields= .TRUE.,
(PID.TID 0016.0001) > useExfCheckRange  = .FALSE.,
(PID.TID 0016.0001) > /
(PID.TID 0016.0001) >
(PID.TID 0016.0001) > &EXF_NML_02
(PID.TID 0016.0001) > uwindfile       = 'exf/UWIND_zero',
(PID.TID 0016.0001) > vwindfile       = 'exf/VWIND_zero',
(PID.TID 0016.0001) > atempfile         = 'exf/ATEMP',
(PID.TID 0016.0001) > aqhfile           = 'exf/AQH',
(PID.TID 0016.0001) > precipfile        = 'exf/PRECIP',
(PID.TID 0016.0001) > swdownfile        = 'exf/SWDOWN',
(PID.TID 0016.0001) > lwdownfile        = 'exf/LWDOWN',
(PID.TID 0016.0001) ># runofffile        = 'exf/RUNOFF',
(PID.TID 0016.0001) >#
(PID.TID 0016.0001) > atempstartdate1   = 20080101,
(PID.TID 0016.0001) > atempstartdate2   = 030000,
(PID.TID 0016.0001) > atempperiod       = 21600.0,
(PID.TID 0016.0001) >#
(PID.TID 0016.0001) > aqhstartdate1     = 20080101,
(PID.TID 0016.0001) > aqhstartdate2     = 030000,
(PID.TID 0016.0001) > aqhperiod         = 21600.0,
(PID.TID 0016.0001) >#
(PID.TID 0016.0001) > precipstartdate1  = 20080101,
(PID.TID 0016.0001) > precipstartdate2  = 030000,
(PID.TID 0016.0001) > precipperiod      = 21600.0,
(PID.TID 0016.0001) >#
(PID.TID 0016.0001) ># runoffstartdate1  = 20080101,
(PID.TID 0016.0001) ># runoffstartdate2  = 030000,
(PID.TID 0016.0001) ># runoffperiod      = 21600.0,
(PID.TID 0016.0001) >#
(PID.TID 0016.0001) > uwindstartdate1   = 20080101,
(PID.TID 0016.0001) > uwindstartdate2   = 030000,
(PID.TID 0016.0001) > uwindperiod       = 21600.0,
(PID.TID 0016.0001) >#
(PID.TID 0016.0001) > vwindstartdate1   = 20080101,
(PID.TID 0016.0001) > vwindstartdate2   = 030000,
(PID.TID 0016.0001) > vwindperiod       = 21600.0,
(PID.TID 0016.0001) >#
(PID.TID 0016.0001) > swdownstartdate1  = 20080101,
(PID.TID 0016.0001) > swdownstartdate2  = 030000,
(PID.TID 0016.0001) > swdownperiod      = 21600.0,
(PID.TID 0016.0001) >#
(PID.TID 0016.0001) > lwdownstartdate1  = 20080101,
(PID.TID 0016.0001) > lwdownstartdate2  = 030000,
(PID.TID 0016.0001) > lwdownperiod      = 21600.0,
(PID.TID 0016.0001) >#
(PID.TID 0016.0001) > /
(PID.TID 0016.0001) >
(PID.TID 0016.0001) >
(PID.TID 0016.0001) > &EXF_NML_03
(PID.TID 0016.0001) > /
(PID.TID 0016.0001) >
(PID.TID 0016.0001) > &EXF_NML_04
(PID.TID 0016.0001) > runoff_interpMethod = 0,
(PID.TID 0016.0001) > uwind_interpMethod = 0,
(PID.TID 0016.0001) > vwind_interpMethod = 0,
(PID.TID 0016.0001) > atemp_interpMethod = 0,
(PID.TID 0016.0001) > aqh_interpMethod = 0,
(PID.TID 0016.0001) > precip_interpMethod = 0,
(PID.TID 0016.0001) > swdown_interpMethod = 0,
(PID.TID 0016.0001) > lwdown_interpMethod = 0,
(PID.TID 0016.0001) > /
(PID.TID 0016.0001) >
(PID.TID 0016.0001) >
(PID.TID 0016.0001) > &EXF_NML_OBCS
(PID.TID 0016.0001) > obcsEstartdate1     = 19920101,
(PID.TID 0016.0001) > obcsEstartdate2     = 120000,
(PID.TID 0016.0001) > obcsEperiod         = 2592000.0,
(PID.TID 0016.0001) >#
(PID.TID 0016.0001) > obcsSstartdate1     = 19920101,
(PID.TID 0016.0001) > obcsSstartdate2     = 120000,
(PID.TID 0016.0001) > obcsSperiod         = 2592000.0,
(PID.TID 0016.0001) >#
(PID.TID 0016.0001) > obcsNstartdate1     = 19920101,
(PID.TID 0016.0001) > obcsNstartdate2     = 120000,
(PID.TID 0016.0001) > obcsNperiod         = 2592000.0,
(PID.TID 0016.0001) >#
(PID.TID 0016.0001) > obcsWstartdate1     = 19920101,
(PID.TID 0016.0001) > obcsWstartdate2     = 120000,
(PID.TID 0016.0001) > obcsWperiod         = 2592000.0,
(PID.TID 0016.0001) >#
(PID.TID 0016.0001) > useOBCSYearlyFields = .TRUE.,
(PID.TID 0016.0001) >#
(PID.TID 0016.0001) > /
(PID.TID 0016.0001) 
(PID.TID 0016.0001) EXF_READPARMS: reading EXF_NML_01
(PID.TID 0016.0001) EXF_READPARMS: reading EXF_NML_02
(PID.TID 0016.0001) EXF_READPARMS: reading EXF_NML_03
(PID.TID 0016.0001) EXF_READPARMS: reading EXF_NML_OBCS
(PID.TID 0016.0001) EXF_READPARMS: finished reading data.exf
(PID.TID 0016.0001)  OBCS_READPARMS: opening data.obcs
(PID.TID 0016.0001)  OPEN_COPY_DATA_FILE: opening file data.obcs
(PID.TID 0016.0001) // =======================================================
(PID.TID 0016.0001) // Parameter file "data.obcs"
(PID.TID 0016.0001) // =======================================================
(PID.TID 0016.0001) ># Open-boundaries
(PID.TID 0016.0001) > &OBCS_PARM01
(PID.TID 0016.0001) >#
(PID.TID 0016.0001) > OBCSfixTopo=.FALSE.,
(PID.TID 0016.0001) >#
(PID.TID 0016.0001) > OB_Jsouth= 300*1,
(PID.TID 0016.0001) > OB_Iwest = 204*1,
(PID.TID 0016.0001) > OB_Jnorth= 300*204,
(PID.TID 0016.0001) > OB_Ieast = 204*300,
(PID.TID 0016.0001) >#
(PID.TID 0016.0001) > useOBCSsponge = .TRUE.,
(PID.TID 0016.0001) >#
(PID.TID 0016.0001) > useOBCSbalance = .TRUE.,
(PID.TID 0016.0001) > OBCSbalanceSurf = .TRUE.,
(PID.TID 0016.0001) >#
(PID.TID 0016.0001) > useOBCSprescribe = .TRUE.,
(PID.TID 0016.0001) >#
(PID.TID 0016.0001) ># identify files (uncomment as needed)
(PID.TID 0016.0001) > OBEuFile = 'obcs/UVEL_east',
(PID.TID 0016.0001) > OBSuFile = 'obcs/UVEL_south',
(PID.TID 0016.0001) > OBWuFile = 'obcs/UVEL_west',
(PID.TID 0016.0001) > OBNuFile = 'obcs/UVEL_north',
(PID.TID 0016.0001) >#
(PID.TID 0016.0001) > OBEvFile = 'obcs/VVEL_east',
(PID.TID 0016.0001) > OBSvFile = 'obcs/VVEL_south',
(PID.TID 0016.0001) > OBWvFile = 'obcs/VVEL_west',
(PID.TID 0016.0001) > OBNvFile = 'obcs/VVEL_north',
(PID.TID 0016.0001) >#
(PID.TID 0016.0001) > OBEtFile = 'obcs/THETA_east',
(PID.TID 0016.0001) > OBStFile = 'obcs/THETA_south',
(PID.TID 0016.0001) > OBWtFile = 'obcs/THETA_west',
(PID.TID 0016.0001) > OBNtFile = 'obcs/THETA_north',
(PID.TID 0016.0001) >#
(PID.TID 0016.0001) > OBEsFile = 'obcs/SALT_east',
(PID.TID 0016.0001) > OBSsFile = 'obcs/SALT_south',
(PID.TID 0016.0001) > OBWsFile = 'obcs/SALT_west',
(PID.TID 0016.0001) > OBNsFile = 'obcs/SALT_north',
(PID.TID 0016.0001) >#
(PID.TID 0016.0001) > /
(PID.TID 0016.0001) >
(PID.TID 0016.0001) > &OBCS_PARM02
(PID.TID 0016.0001) > /
(PID.TID 0016.0001) >
(PID.TID 0016.0001) > &OBCS_PARM03
(PID.TID 0016.0001) > spongeThickness = 10,
(PID.TID 0016.0001) > Urelaxobcsinner = 1296000.E0,
(PID.TID 0016.0001) > Vrelaxobcsinner = 1296000.E0,
(PID.TID 0016.0001) > Urelaxobcsbound=43200.E0,
(PID.TID 0016.0001) > Vrelaxobcsbound=43200.E0,
(PID.TID 0016.0001) > /
(PID.TID 0016.0001) 
(PID.TID 0016.0001)  OBCS_READPARMS: finished reading data.obcs
(PID.TID 0016.0001)  KPP_READPARMS: opening data.kpp
(PID.TID 0016.0001)  OPEN_COPY_DATA_FILE: opening file data.kpp
(PID.TID 0016.0001) // =======================================================
(PID.TID 0016.0001) // Parameter file "data.kpp"
(PID.TID 0016.0001) // =======================================================
(PID.TID 0016.0001) ># KPP parameters
(PID.TID 0016.0001) > &KPP_PARM01
(PID.TID 0016.0001) > KPPmixingMaps   = .FALSE.,
(PID.TID 0016.0001) > KPPwriteState   = .FALSE.,
(PID.TID 0016.0001) > kpp_dumpFreq    = 0.,
(PID.TID 0016.0001) > kpp_tavefreq    = 0.,
(PID.TID 0016.0001) > Ricr            = 0.3583,
(PID.TID 0016.0001) > Riinfty         = 0.6998,
(PID.TID 0016.0001) > /
(PID.TID 0016.0001) 
(PID.TID 0016.0001)  KPP_READPARMS ; starts to read KPP_PARM01
(PID.TID 0016.0001)  KPP_READPARMS ; read KPP_PARM01 : OK
(PID.TID 0016.0001)  KPP_READPARMS: finished reading data.kpp
(PID.TID 0016.0001)  DIAGNOSTICS_READPARMS: opening data.diagnostics
(PID.TID 0016.0001)  OPEN_COPY_DATA_FILE: opening file data.diagnostics
(PID.TID 0016.0001) // =======================================================
(PID.TID 0016.0001) // Parameter file "data.diagnostics"
(PID.TID 0016.0001) // =======================================================
(PID.TID 0016.0001) ># Diagnostic Package Choices
(PID.TID 0016.0001) >#
(PID.TID 0016.0001) > &diagnostics_list
(PID.TID 0016.0001) >     dumpAtLast = .TRUE.,
(PID.TID 0016.0001) >#--
(PID.TID 0016.0001) ># Example of a 2d field output in daily snapshots
(PID.TID 0016.0001) >#--
(PID.TID 0016.0001) >  fields(1,1) = 'ETAN    ',
(PID.TID 0016.0001) >  fileName(1) = 'diags/EtaN_day_snap/EtaN_day_snap',
(PID.TID 0016.0001) >  frequency(1) =  -86400.,
(PID.TID 0016.0001) >#
(PID.TID 0016.0001) >#--
(PID.TID 0016.0001) ># Example of a 2d field output in monthly means
(PID.TID 0016.0001) >#--
(PID.TID 0016.0001) >  fields(1,2) = 'ETAN    ',
(PID.TID 0016.0001) >  fileName(2) = 'diags/EtaN_mon_mean/EtaN_mon_mean',
(PID.TID 0016.0001) >  frequency(2) =  2592000.,
(PID.TID 0016.0001) >#
(PID.TID 0016.0001) >#--
(PID.TID 0016.0001) ># Example of 3d fields output in monthly shapshots
(PID.TID 0016.0001) >#--
(PID.TID 0016.0001) >  fields(1:2,3) = 'UVEL    ','VVEL    ',
(PID.TID 0016.0001) >  fileName(3) = 'diags/vel_3D_mon_snap/vel_3D_mon_snap',
(PID.TID 0016.0001) >  frequency(3) = -2592000.,
(PID.TID 0016.0001) >#
(PID.TID 0016.0001) >#--
(PID.TID 0016.0001) >#--
(PID.TID 0016.0001) ># Example of 3d fields output in monthly means
(PID.TID 0016.0001) >#--
(PID.TID 0016.0001) >  fields(1:2,4) = 'THETA   ','SALT    ',
(PID.TID 0016.0001) >  fileName(4) = 'diags/TS_3D_mon_mean/TS_3D_mon_mean',
(PID.TID 0016.0001) >  frequency(4) = 2592000.,
(PID.TID 0016.0001) >#
(PID.TID 0016.0001) >#--
(PID.TID 0016.0001) ># Example of 3d fields output as means at the surface only
(PID.TID 0016.0001) >#--
(PID.TID 0016.0001) >  fields(1:2,5) = 'THETA   ','SALT    ',
(PID.TID 0016.0001) >  fileName(5) = 'diags/TS_surf_daily_mean/TS_surf_daily_mean',
(PID.TID 0016.0001) >  frequency(5) = 86400.,
(PID.TID 0016.0001) >  levels(:,5) = 1,
(PID.TID 0016.0001) >#
(PID.TID 0016.0001) > /
(PID.TID 0016.0001) >
(PID.TID 0016.0001) ># Parameter for Diagnostics of per level statistics:
(PID.TID 0016.0001) > &DIAG_STATIS_PARMS
(PID.TID 0016.0001) > /
(PID.TID 0016.0001) 
(PID.TID 0016.0001) S/R DIAGNOSTICS_READPARMS, read namelist "diagnostics_list": start
(PID.TID 0016.0001) S/R DIAGNOSTICS_READPARMS, read namelist "diagnostics_list": OK
(PID.TID 0016.0001) S/R DIAGNOSTICS_READPARMS, read namelist "DIAG_STATIS_PARMS": start
(PID.TID 0016.0001) S/R DIAGNOSTICS_READPARMS, read namelist "DIAG_STATIS_PARMS": OK
(PID.TID 0016.0001) -----------------------------------------------------
(PID.TID 0016.0001)  DIAGNOSTICS_READPARMS: global parameter summary:
(PID.TID 0016.0001)  diag_dBugLevel = /* level of printed debug messages */
(PID.TID 0016.0001)                       0
(PID.TID 0016.0001)     ;
(PID.TID 0016.0001)  dumpAtLast = /* always write time-ave diags at the end */
(PID.TID 0016.0001)                   T
(PID.TID 0016.0001)     ;
(PID.TID 0016.0001)  diag_mnc =   /* write NetCDF output files */
(PID.TID 0016.0001)                   F
(PID.TID 0016.0001)     ;
(PID.TID 0016.0001)  useMissingValue = /* put MissingValue where mask = 0 */
(PID.TID 0016.0001)                   F
(PID.TID 0016.0001)     ;
(PID.TID 0016.0001)  diagCG_maxIters = /* max number of iters in diag_cg2d */
(PID.TID 0016.0001)                     300
(PID.TID 0016.0001)     ;
(PID.TID 0016.0001)  diagCG_resTarget = /* residual target for diag_cg2d */
(PID.TID 0016.0001)                 1.000000000000000E-10
(PID.TID 0016.0001)     ;
(PID.TID 0016.0001)  diagCG_pcOffDFac = /* preconditioner off-diagonal factor */
(PID.TID 0016.0001)                 9.611687812379854E-01
(PID.TID 0016.0001)     ;
(PID.TID 0016.0001) -----------------------------------------------------
(PID.TID 0016.0001)  DIAGNOSTICS_READPARMS: active diagnostics summary:
(PID.TID 0016.0001) -----------------------------------------------------
(PID.TID 0016.0001) Creating Output Stream: diags/EtaN_day_snap/EtaN_day_snap
(PID.TID 0016.0001) Output Frequency:     -86400.000000 ; Phase:       43200.000000
(PID.TID 0016.0001)  Averaging Freq.:          0.000000 , Phase:           0.000000 , Cycle:   1
(PID.TID 0016.0001)  missing value: -9.990000000000E+02
(PID.TID 0016.0001)  Levels:    will be set later
(PID.TID 0016.0001)  Fields:    ETAN
(PID.TID 0016.0001) Creating Output Stream: diags/EtaN_mon_mean/EtaN_mon_mean
(PID.TID 0016.0001) Output Frequency:    2592000.000000 ; Phase:           0.000000
(PID.TID 0016.0001)  Averaging Freq.:    2592000.000000 , Phase:           0.000000 , Cycle:   1
(PID.TID 0016.0001)  missing value: -9.990000000000E+02
(PID.TID 0016.0001)  Levels:    will be set later
(PID.TID 0016.0001)  Fields:    ETAN
(PID.TID 0016.0001) Creating Output Stream: diags/vel_3D_mon_snap/vel_3D_mon_snap
(PID.TID 0016.0001) Output Frequency:   -2592000.000000 ; Phase:     1296000.000000
(PID.TID 0016.0001)  Averaging Freq.:          0.000000 , Phase:           0.000000 , Cycle:   1
(PID.TID 0016.0001)  missing value: -9.990000000000E+02
(PID.TID 0016.0001)  Levels:    will be set later
(PID.TID 0016.0001)  Fields:    UVEL     VVEL
(PID.TID 0016.0001) Creating Output Stream: diags/TS_3D_mon_mean/TS_3D_mon_mean
(PID.TID 0016.0001) Output Frequency:    2592000.000000 ; Phase:           0.000000
(PID.TID 0016.0001)  Averaging Freq.:    2592000.000000 , Phase:           0.000000 , Cycle:   1
(PID.TID 0016.0001)  missing value: -9.990000000000E+02
(PID.TID 0016.0001)  Levels:    will be set later
(PID.TID 0016.0001)  Fields:    THETA    SALT
(PID.TID 0016.0001) Creating Output Stream: diags/TS_surf_daily_mean/TS_surf_daily_mean
(PID.TID 0016.0001) Output Frequency:      86400.000000 ; Phase:           0.000000
(PID.TID 0016.0001)  Averaging Freq.:      86400.000000 , Phase:           0.000000 , Cycle:   1
(PID.TID 0016.0001)  missing value: -9.990000000000E+02
(PID.TID 0016.0001)  Levels:       1.
(PID.TID 0016.0001)  Fields:    THETA    SALT
(PID.TID 0016.0001) -----------------------------------------------------
(PID.TID 0016.0001)  DIAGNOSTICS_READPARMS: statistics diags. summary:
(PID.TID 0016.0001) -----------------------------------------------------
(PID.TID 0016.0001) 
(PID.TID 0016.0001) SET_PARMS: done
(PID.TID 0016.0001) Enter INI_VERTICAL_GRID: setInterFDr=    T ; setCenterDr=    F
(PID.TID 0016.0001) 
(PID.TID 0016.0001) // =======================================================
(PID.TID 0016.0001) // Calendar configuration >>> START <<<
(PID.TID 0016.0001) // =======================================================
(PID.TID 0016.0001) 
(PID.TID 0016.0001) modelstart = /* Start time of the model integration [s] */
(PID.TID 0016.0001)                 0.000000000000000E+00
(PID.TID 0016.0001)     ;
(PID.TID 0016.0001) modelend  = /* End time of the model integration [s] */
(PID.TID 0016.0001)                 3.153600000000000E+07
(PID.TID 0016.0001)     ;
(PID.TID 0016.0001) modelStep = /* Time interval for a model forward step [s] */
(PID.TID 0016.0001)                 3.000000000000000E+02
(PID.TID 0016.0001)     ;
(PID.TID 0016.0001) usingGregorianCalendar= /* Calendar Type: Gregorian Calendar */
(PID.TID 0016.0001)                   T
(PID.TID 0016.0001)     ;
(PID.TID 0016.0001) usingJulianCalendar = /* Calendar Type: Julian Calendar */
(PID.TID 0016.0001)                   F
(PID.TID 0016.0001)     ;
(PID.TID 0016.0001) usingNoLeapYearCal  = /* Calendar Type: without Leap Year */
(PID.TID 0016.0001)                   F
(PID.TID 0016.0001)     ;
(PID.TID 0016.0001) usingModelCalendar  = /* Calendar Type: Model Calendar */
(PID.TID 0016.0001)                   F
(PID.TID 0016.0001)     ;
(PID.TID 0016.0001) modelStartDate YYYYMMDD = /* Model start date YYYY-MM-DD */
(PID.TID 0016.0001)                19970116
(PID.TID 0016.0001)     ;
(PID.TID 0016.0001)   modelStartDate HHMMSS = /* Model start date HH-MM-SS  */
(PID.TID 0016.0001)                       0
(PID.TID 0016.0001)     ;
(PID.TID 0016.0001) modelEndDate   YYYYMMDD = /* Model end date YYYY-MM-DD */
(PID.TID 0016.0001)                19980116
(PID.TID 0016.0001)     ;
(PID.TID 0016.0001)   modelEndDate   HHMMSS = /* Model end date HH-MM-SS  */
(PID.TID 0016.0001)                       0
(PID.TID 0016.0001)     ;
(PID.TID 0016.0001) intyears = /* Number of calendar years affected by the integration */
(PID.TID 0016.0001)                       2
(PID.TID 0016.0001)     ;
(PID.TID 0016.0001) intmonths= /* Number of calendar months affected by the integration */
(PID.TID 0016.0001)                      13
(PID.TID 0016.0001)     ;
(PID.TID 0016.0001) intdays = /* Number of calendar days affected by the integration */
(PID.TID 0016.0001)                     365
(PID.TID 0016.0001)     ;
(PID.TID 0016.0001) modelIter0 = /* Base timestep number  */
(PID.TID 0016.0001)                       0
(PID.TID 0016.0001)     ;
(PID.TID 0016.0001) modelIterEnd = /* Final timestep number  */
(PID.TID 0016.0001)                  105120
(PID.TID 0016.0001)     ;
(PID.TID 0016.0001) modelIntSteps= /* Number of model timesteps  */
(PID.TID 0016.0001)                  105120
(PID.TID 0016.0001)     ;
(PID.TID 0016.0001) 
(PID.TID 0016.0001) // =======================================================
(PID.TID 0016.0001) // Calendar configuration  >>> END <<<
(PID.TID 0016.0001) // =======================================================
(PID.TID 0016.0001) 
(PID.TID 0016.0001) GAD_INIT_FIXED: GAD_OlMinSize=  4  0  1
(PID.TID 0016.0001) 
(PID.TID 0016.0001) // ===================================
(PID.TID 0016.0001) // GAD parameters :
(PID.TID 0016.0001) // ===================================
(PID.TID 0016.0001) tempAdvScheme =   /* Temp. Horiz.Advection scheme selector */
(PID.TID 0016.0001)                       7
(PID.TID 0016.0001)     ;
(PID.TID 0016.0001) tempVertAdvScheme =   /* Temp. Vert. Advection scheme selector */
(PID.TID 0016.0001)                       7
(PID.TID 0016.0001)     ;
(PID.TID 0016.0001) tempMultiDimAdvec =   /* use Muti-Dim Advec method for Temp */
(PID.TID 0016.0001)                   T
(PID.TID 0016.0001)     ;
(PID.TID 0016.0001) tempSOM_Advection = /* use 2nd Order Moment Advection for Temp */
(PID.TID 0016.0001)                   F
(PID.TID 0016.0001)     ;
(PID.TID 0016.0001) AdamsBashforthGt = /* apply Adams-Bashforth extrapolation on Gt */
(PID.TID 0016.0001)                   F
(PID.TID 0016.0001)     ;
(PID.TID 0016.0001) AdamsBashforth_T = /* apply Adams-Bashforth extrapolation on Temp */
(PID.TID 0016.0001)                   F
(PID.TID 0016.0001)     ;
(PID.TID 0016.0001) saltAdvScheme =   /* Salt. Horiz.advection scheme selector */
(PID.TID 0016.0001)                       7
(PID.TID 0016.0001)     ;
(PID.TID 0016.0001) saltVertAdvScheme =   /* Salt. Vert. Advection scheme selector */
(PID.TID 0016.0001)                       7
(PID.TID 0016.0001)     ;
(PID.TID 0016.0001) saltMultiDimAdvec =   /* use Muti-Dim Advec method for Salt */
(PID.TID 0016.0001)                   T
(PID.TID 0016.0001)     ;
(PID.TID 0016.0001) saltSOM_Advection = /* use 2nd Order Moment Advection for Salt */
(PID.TID 0016.0001)                   F
(PID.TID 0016.0001)     ;
(PID.TID 0016.0001) AdamsBashforthGs = /* apply Adams-Bashforth extrapolation on Gs */
(PID.TID 0016.0001)                   F
(PID.TID 0016.0001)     ;
(PID.TID 0016.0001) AdamsBashforth_S = /* apply Adams-Bashforth extrapolation on Salt */
(PID.TID 0016.0001)                   F
(PID.TID 0016.0001)     ;
(PID.TID 0016.0001) // ===================================
(PID.TID 0016.0001) 
(PID.TID 0016.0001) // =======================================================
(PID.TID 0016.0001) // External forcing (EXF) configuration >>> START <<<
(PID.TID 0016.0001) // =======================================================
(PID.TID 0016.0001) 
(PID.TID 0016.0001)  EXF general parameters:
(PID.TID 0016.0001) 
(PID.TID 0016.0001) exf_iprec = /* exf file precision */
(PID.TID 0016.0001)                      32
(PID.TID 0016.0001)     ;
(PID.TID 0016.0001) useExfYearlyFields = /* add extension _YEAR to input file names */
(PID.TID 0016.0001)                   T
(PID.TID 0016.0001)     ;
(PID.TID 0016.0001) twoDigitYear = /* use 2-digit year extension */
(PID.TID 0016.0001)                   F
(PID.TID 0016.0001)     ;
(PID.TID 0016.0001) useExfCheckRange = /* check for fields range */
(PID.TID 0016.0001)                   F
(PID.TID 0016.0001)     ;
(PID.TID 0016.0001) diags_opOceWeighted = /* weight flux diags by open-ocean fraction */
(PID.TID 0016.0001)                   F
(PID.TID 0016.0001)     ;
(PID.TID 0016.0001) exf_debugLev = /* select EXF-debug printing level */
(PID.TID 0016.0001)                       0
(PID.TID 0016.0001)     ;
(PID.TID 0016.0001) exf_monFreq  = /* EXF monitor frequency [ s ] */
(PID.TID 0016.0001)                 3.000000000000000E+02
(PID.TID 0016.0001)     ;
(PID.TID 0016.0001) exf_adjMonSelect = /* select group of exf AD-variables to monitor */
(PID.TID 0016.0001)                       1
(PID.TID 0016.0001)     ;
(PID.TID 0016.0001) repeatPeriod = /* period for cycling forcing dataset [ s ] */
(PID.TID 0016.0001)                 0.000000000000000E+00
(PID.TID 0016.0001)     ;
(PID.TID 0016.0001) climTempFreeze= /* Minimum climatological temperature [deg.C] */
(PID.TID 0016.0001)                -1.900000000000000E+00
(PID.TID 0016.0001)     ;
(PID.TID 0016.0001) windStressMax = /* Maximum absolute windstress [ Pa ] */
(PID.TID 0016.0001)                 2.000000000000000E+00
(PID.TID 0016.0001)     ;
(PID.TID 0016.0001) stressIsOnCgrid = /* set u,v_stress on Arakawa C-grid */
(PID.TID 0016.0001)                   F
(PID.TID 0016.0001)     ;
(PID.TID 0016.0001) rotateStressOnAgrid = /* rotate u,v_stress on Arakawa A-grid */
(PID.TID 0016.0001)                   F
(PID.TID 0016.0001)     ;
(PID.TID 0016.0001) cen2kel = /* conversion of deg. Centigrade to Kelvin [K] */
(PID.TID 0016.0001)                 2.731500000000000E+02
(PID.TID 0016.0001)     ;
(PID.TID 0016.0001) gravity_mks= /* gravitational acceleration [m/s^2] */
(PID.TID 0016.0001)                 9.810000000000000E+00
(PID.TID 0016.0001)     ;
(PID.TID 0016.0001) atmrho =  /* mean atmospheric density [kg/m^3] */
(PID.TID 0016.0001)                 1.200000000000000E+00
(PID.TID 0016.0001)     ;
(PID.TID 0016.0001) atmcp =  /* mean atmospheric specific heat [J/kg/K] */
(PID.TID 0016.0001)                 1.005000000000000E+03
(PID.TID 0016.0001)     ;
(PID.TID 0016.0001) flamb =  /* latent heat of evaporation [J/kg] */
(PID.TID 0016.0001)                 2.500000000000000E+06
(PID.TID 0016.0001)     ;
(PID.TID 0016.0001) flami =  /* latent heat of pure-ice melting [J/kg] */
(PID.TID 0016.0001)                 3.340000000000000E+05
(PID.TID 0016.0001)     ;
(PID.TID 0016.0001) cvapor_fac = /* const. for Saturation calculation [?] */
(PID.TID 0016.0001)                 6.403800000000000E+05
(PID.TID 0016.0001)     ;
(PID.TID 0016.0001) cvapor_exp = /* const. for Saturation calculation [?] */
(PID.TID 0016.0001)                 5.107400000000000E+03
(PID.TID 0016.0001)     ;
(PID.TID 0016.0001) cvapor_fac_ice= /* const. for Saturation calculation [?] */
(PID.TID 0016.0001)                 1.163780000000000E+07
(PID.TID 0016.0001)     ;
(PID.TID 0016.0001) cvapor_exp_ice= /* const. for Saturation calculation [?] */
(PID.TID 0016.0001)                 5.897800000000000E+03
(PID.TID 0016.0001)     ;
(PID.TID 0016.0001) humid_fac = /* humidity coef. in virtual temp. [(kg/kg)^-1] */
(PID.TID 0016.0001)                 6.060000000000000E-01
(PID.TID 0016.0001)     ;
(PID.TID 0016.0001) gamma_blk = /* adiabatic lapse rate [?] */
(PID.TID 0016.0001)                 1.000000000000000E-02
(PID.TID 0016.0001)     ;
(PID.TID 0016.0001) saltsat = /* reduction of Qsat over salty water [-] */
(PID.TID 0016.0001)                 9.800000000000000E-01
(PID.TID 0016.0001)     ;
(PID.TID 0016.0001) noNegativeEvap = /* prevent negative Evaporation */
(PID.TID 0016.0001)                   F
(PID.TID 0016.0001)     ;
(PID.TID 0016.0001) sstExtrapol = /* extrapolation coeff from lev. 1 & 2 to surf [-] */
(PID.TID 0016.0001)                 0.000000000000000E+00
(PID.TID 0016.0001)     ;
(PID.TID 0016.0001) cDrag_1 = /* coef used in drag calculation [m/s] */
(PID.TID 0016.0001)                 2.700000000000000E-03
(PID.TID 0016.0001)     ;
(PID.TID 0016.0001) cDrag_2 = /* coef used in drag calculation [-] */
(PID.TID 0016.0001)                 1.420000000000000E-04
(PID.TID 0016.0001)     ;
(PID.TID 0016.0001) cDrag_3 = /* coef used in drag calculation [s/m] */
(PID.TID 0016.0001)                 7.640000000000000E-05
(PID.TID 0016.0001)     ;
(PID.TID 0016.0001) cDrag_8 = /* coef used in drag calculation [(s/m)^6] */
(PID.TID 0016.0001)                 1.234567000000000E+05
(PID.TID 0016.0001)     ;
(PID.TID 0016.0001) cDragMax = /* maximum drag (Large and Yeager, 2009) [-] */
(PID.TID 0016.0001)                 1.234567000000000E+05
(PID.TID 0016.0001)     ;
(PID.TID 0016.0001) umax = /* at maximum wind (Large and Yeager, 2009) [m/s] */
(PID.TID 0016.0001)                 1.234567000000000E+05
(PID.TID 0016.0001)     ;
(PID.TID 0016.0001) cStanton_1 = /* coef used in Stanton number calculation [-] */
(PID.TID 0016.0001)                 3.270000000000000E-02
(PID.TID 0016.0001)     ;
(PID.TID 0016.0001) cStanton_2 = /* coef used in Stanton number calculation [-] */
(PID.TID 0016.0001)                 1.800000000000000E-02
(PID.TID 0016.0001)     ;
(PID.TID 0016.0001) cDalton = /* Dalton number [-] */
(PID.TID 0016.0001)                 3.460000000000000E-02
(PID.TID 0016.0001)     ;
(PID.TID 0016.0001) exf_scal_BulkCdn= /* Drag coefficient scaling factor [-] */
(PID.TID 0016.0001)                 1.000000000000000E+00
(PID.TID 0016.0001)     ;
(PID.TID 0016.0001) zolmin = /* minimum stability parameter [?] */
(PID.TID 0016.0001)                -1.000000000000000E+02
(PID.TID 0016.0001)     ;
(PID.TID 0016.0001) psim_fac = /* coef used in turbulent fluxes calculation [-] */
(PID.TID 0016.0001)                 5.000000000000000E+00
(PID.TID 0016.0001)     ;
(PID.TID 0016.0001) zref =  /* reference height [ m ] */
(PID.TID 0016.0001)                 1.000000000000000E+01
(PID.TID 0016.0001)     ;
(PID.TID 0016.0001) hu =  /* height of mean wind [ m ] */
(PID.TID 0016.0001)                 1.000000000000000E+01
(PID.TID 0016.0001)     ;
(PID.TID 0016.0001) ht =  /* height of mean temperature [ m ] */
(PID.TID 0016.0001)                 2.000000000000000E+00
(PID.TID 0016.0001)     ;
(PID.TID 0016.0001) hq =  /* height of mean spec.humidity [ m ] */
(PID.TID 0016.0001)                 2.000000000000000E+00
(PID.TID 0016.0001)     ;
(PID.TID 0016.0001) uMin = /* minimum wind speed [m/s] */
(PID.TID 0016.0001)                 5.000000000000000E-01
(PID.TID 0016.0001)     ;
(PID.TID 0016.0001) useStabilityFct_overIce= /* transfert Coeffs over sea-ice depend on stability */
(PID.TID 0016.0001)                   F
(PID.TID 0016.0001)     ;
(PID.TID 0016.0001) exf_iceCd = /* drag coefficient over sea-ice (fixed) [-] */
(PID.TID 0016.0001)                 1.630000000000000E-03
(PID.TID 0016.0001)     ;
(PID.TID 0016.0001) exf_iceCe = /* transfert coeff. over sea-ice, for Evap (fixed) [-] */
(PID.TID 0016.0001)                 1.630000000000000E-03
(PID.TID 0016.0001)     ;
(PID.TID 0016.0001) exf_iceCh = /* transfert coeff. over sea-ice, Sens.Heat.(fixed)[-] */
(PID.TID 0016.0001)                 1.630000000000000E-03
(PID.TID 0016.0001)     ;
(PID.TID 0016.0001) exf_albedo =  /* Sea-water albedo [-] */
(PID.TID 0016.0001)                 1.000000000000000E-01
(PID.TID 0016.0001)     ;
(PID.TID 0016.0001) useExfZenAlbedo = /* Sea-water albedo varies with zenith angle */
(PID.TID 0016.0001)                   F
(PID.TID 0016.0001)     ;
(PID.TID 0016.0001) select_ZenAlbedo = /* Sea-water albedo computation method */
(PID.TID 0016.0001)                       0
(PID.TID 0016.0001)     ;
(PID.TID 0016.0001) useExfZenIncoming = /* compute incoming solar radiation */
(PID.TID 0016.0001)                   F
(PID.TID 0016.0001)     ;
(PID.TID 0016.0001) ocean_emissivity = /* longwave ocean-surface emissivity [-] */
(PID.TID 0016.0001)                 9.700176366843034E-01
(PID.TID 0016.0001)     ;
(PID.TID 0016.0001) ice_emissivity = /* longwave seaice emissivity [-] */
(PID.TID 0016.0001)                 9.500000000000000E-01
(PID.TID 0016.0001)     ;
(PID.TID 0016.0001) snow_emissivity = /* longwave snow  emissivity [-] */
(PID.TID 0016.0001)                 9.500000000000000E-01
(PID.TID 0016.0001)     ;
(PID.TID 0016.0001) 
(PID.TID 0016.0001)  EXF main CPP flags:
(PID.TID 0016.0001) 
(PID.TID 0016.0001) // USE_EXF_INTERPOLATION:          NOT defined
(PID.TID 0016.0001) // ALLOW_ATM_TEMP:                     defined
(PID.TID 0016.0001) // ALLOW_ATM_WIND (useAtmWind):        defined
(PID.TID 0016.0001) // ALLOW_DOWNWARD_RADIATION:           defined
(PID.TID 0016.0001) // ALLOW_BULKFORMULAE:                 defined
(PID.TID 0016.0001) 
(PID.TID 0016.0001)    Zonal wind forcing starts at                      10800.
(PID.TID 0016.0001)    Zonal wind forcing period is                      21600.
(PID.TID 0016.0001)    Zonal wind forcing repeat-cycle is                    0.
(PID.TID 0016.0001)    Zonal wind forcing is read from file:
(PID.TID 0016.0001)    >> exf/UWIND_zero <<
(PID.TID 0016.0001) 
(PID.TID 0016.0001)    Meridional wind forcing starts at                 10800.
(PID.TID 0016.0001)    Meridional wind forcing period is                 21600.
(PID.TID 0016.0001)    Meridional wind forcing repeat-cycle is               0.
(PID.TID 0016.0001)    Meridional wind forcing is read from file:
(PID.TID 0016.0001)    >> exf/VWIND_zero <<
(PID.TID 0016.0001) 
(PID.TID 0016.0001)    Atmospheric temperature starts at                 10800.
(PID.TID 0016.0001)    Atmospheric temperature period is                 21600.
(PID.TID 0016.0001)    Atmospheric temperature repeat-cycle is               0.
(PID.TID 0016.0001)    Atmospheric temperature is read from file:
(PID.TID 0016.0001)    >> exf/ATEMP <<
(PID.TID 0016.0001) 
(PID.TID 0016.0001)    Atmospheric specific humidity starts at           10800.
(PID.TID 0016.0001)    Atmospheric specific humidity period is           21600.
(PID.TID 0016.0001)    Atmospheric specific humidity rep-cycle is            0.
(PID.TID 0016.0001)    Atmospheric specific humidity is read from file:
(PID.TID 0016.0001)    >> exf/AQH <<
(PID.TID 0016.0001) 
(PID.TID 0016.0001) // ALLOW_READ_TURBFLUXES:          NOT defined
(PID.TID 0016.0001) // EXF_READ_EVAP:                  NOT defined
(PID.TID 0016.0001) 
(PID.TID 0016.0001)    Precipitation data starts at                      10800.
(PID.TID 0016.0001)    Precipitation data period is                      21600.
(PID.TID 0016.0001)    Precipitation data repeat-cycle is                    0.
(PID.TID 0016.0001)    Precipitation data is read from file:
(PID.TID 0016.0001)    >> exf/PRECIP <<
(PID.TID 0016.0001) 
(PID.TID 0016.0001) // ALLOW_RUNOFF:                       defined
(PID.TID 0016.0001) // ALLOW_RUNOFTEMP:                NOT defined
(PID.TID 0016.0001) // ALLOW_SALTFLX:                      defined
(PID.TID 0016.0001) 
(PID.TID 0016.0001)    Downward shortwave flux starts at                 10800.
(PID.TID 0016.0001)    Downward shortwave flux period is                 21600.
(PID.TID 0016.0001)    Downward shortwave flux repeat-cycle is               0.
(PID.TID 0016.0001)    Downward shortwave flux is read from file:
(PID.TID 0016.0001)    >> exf/SWDOWN <<
(PID.TID 0016.0001) 
(PID.TID 0016.0001)    Downward longwave flux starts at                  10800.
(PID.TID 0016.0001)    Downward longwave flux period is                  21600.
(PID.TID 0016.0001)    Downward longwave flux repeat-cycle is                0.
(PID.TID 0016.0001)    Downward longwave flux is read from file:
(PID.TID 0016.0001)    >> exf/LWDOWN <<
(PID.TID 0016.0001) 
(PID.TID 0016.0001) // =======================================================
(PID.TID 0016.0001) // External forcing (EXF) climatology configuration :
(PID.TID 0016.0001) // =======================================================
(PID.TID 0016.0001) 
(PID.TID 0016.0001) // ALLOW_CLIMSST_RELAXATION:           defined
(PID.TID 0016.0001)    climsst relaxation is NOT used
(PID.TID 0016.0001) 
(PID.TID 0016.0001) // ALLOW_CLIMSSS_RELAXATION:           defined
(PID.TID 0016.0001)    climsss relaxation is NOT used
(PID.TID 0016.0001) 
(PID.TID 0016.0001) // =======================================================
(PID.TID 0016.0001) // External forcing (EXF) configuration  >>> END <<<
(PID.TID 0016.0001) // =======================================================
(PID.TID 0016.0001) 
(PID.TID 0016.0001) ------------------------------------------------------------
(PID.TID 0016.0001) DIAGNOSTICS_SET_LEVELS: done
(PID.TID 0016.0001)  Total Nb of available Diagnostics: ndiagt=   240
(PID.TID 0016.0001) SETDIAG: Allocate  1 x  1 Levels for Diagnostic #    23 ETAN
(PID.TID 0016.0001) SETDIAG: Allocate  1 x  1 Levels for Diagnostic #    23 ETAN
(PID.TID 0016.0001) SETDIAG: Allocate 50 x  1 Levels for Diagnostic #    30 UVEL
(PID.TID 0016.0001) SETDIAG: Allocate 50 x  1 Levels for Diagnostic #    31 VVEL
(PID.TID 0016.0001) SETDIAG: Allocate 50 x  1 Levels for Diagnostic #    26 THETA
(PID.TID 0016.0001) SETDIAG: Allocate 50 x  1 Levels for Diagnostic #    27 SALT
(PID.TID 0016.0001) SETDIAG: Allocate 50 x  1 Levels for Diagnostic #    26 THETA
(PID.TID 0016.0001) SETDIAG: Allocate 50 x  1 Levels for Diagnostic #    27 SALT
(PID.TID 0016.0001)   space allocated for all diagnostics:     302 levels
(PID.TID 0016.0001)   set mate pointer for diag #    30  UVEL     , Parms: UUR     MR , mate:    31
(PID.TID 0016.0001)   set mate pointer for diag #    31  VVEL     , Parms: VVR     MR , mate:    30
(PID.TID 0016.0001) DIAGNOSTICS_SET_POINTERS: Set levels for Outp.Stream: diags/EtaN_day_snap/EtaN_day_snap
(PID.TID 0016.0001)  Levels:       1.
(PID.TID 0016.0001) DIAGNOSTICS_SET_POINTERS: Set levels for Outp.Stream: diags/EtaN_mon_mean/EtaN_mon_mean
(PID.TID 0016.0001)  Levels:       1.
(PID.TID 0016.0001) DIAGNOSTICS_SET_POINTERS: Set levels for Outp.Stream: diags/vel_3D_mon_snap/vel_3D_mon_snap
(PID.TID 0016.0001)  Levels:       1.   2.   3.   4.   5.   6.   7.   8.   9.  10.  11.  12.  13.  14.  15.  16.  17.  18.  19.  20.
(PID.TID 0016.0001)  Levels:      21.  22.  23.  24.  25.  26.  27.  28.  29.  30.  31.  32.  33.  34.  35.  36.  37.  38.  39.  40.
(PID.TID 0016.0001)  Levels:      41.  42.  43.  44.  45.  46.  47.  48.  49.  50.
(PID.TID 0016.0001) DIAGNOSTICS_SET_POINTERS: Set levels for Outp.Stream: diags/TS_3D_mon_mean/TS_3D_mon_mean
(PID.TID 0016.0001)  Levels:       1.   2.   3.   4.   5.   6.   7.   8.   9.  10.  11.  12.  13.  14.  15.  16.  17.  18.  19.  20.
(PID.TID 0016.0001)  Levels:      21.  22.  23.  24.  25.  26.  27.  28.  29.  30.  31.  32.  33.  34.  35.  36.  37.  38.  39.  40.
(PID.TID 0016.0001)  Levels:      41.  42.  43.  44.  45.  46.  47.  48.  49.  50.
(PID.TID 0016.0001) DIAGNOSTICS_SET_POINTERS: done, use     302 levels (numDiags =     500 )
(PID.TID 0016.0001) ------------------------------------------------------------
(PID.TID 0016.0001) DIAGSTATS_SET_REGIONS: define no region
(PID.TID 0016.0001) ------------------------------------------------------------
(PID.TID 0016.0001)   space allocated for all stats-diags:       0 levels
(PID.TID 0016.0001) DIAGSTATS_SET_POINTERS: done, use       0 levels (diagSt_size=     500 )
(PID.TID 0016.0001) ------------------------------------------------------------
(PID.TID 0016.0001) INI_CG2D: CG2D normalisation factor =  1.5330295160315060E-04
(PID.TID 0016.0001) 
(PID.TID 0016.0001) // =======================================================
(PID.TID 0016.0001) // Model configuration
(PID.TID 0016.0001) // =======================================================
(PID.TID 0016.0001) //
(PID.TID 0016.0001) // "Physical" paramters ( PARM01 in namelist )
(PID.TID 0016.0001) //
(PID.TID 0016.0001) buoyancyRelation = /* Type of relation to get Buoyancy */
(PID.TID 0016.0001)               'OCEANIC'
(PID.TID 0016.0001)     ;
(PID.TID 0016.0001) fluidIsAir   =  /* fluid major constituent is Air */
(PID.TID 0016.0001)                   F
(PID.TID 0016.0001)     ;
(PID.TID 0016.0001) fluidIsWater =  /* fluid major constituent is Water */
(PID.TID 0016.0001)                   T
(PID.TID 0016.0001)     ;
(PID.TID 0016.0001) usingPCoords =  /* use p (or p*) vertical coordinate */
(PID.TID 0016.0001)                   F
(PID.TID 0016.0001)     ;
(PID.TID 0016.0001) usingZCoords =  /* use z (or z*) vertical coordinate */
(PID.TID 0016.0001)                   T
(PID.TID 0016.0001)     ;
(PID.TID 0016.0001) tRef =   /* Reference temperature profile ( oC or K ) */
(PID.TID 0016.0001)    50 @  2.000000000000000E+01              /* K =  1: 50 */
(PID.TID 0016.0001)     ;
(PID.TID 0016.0001) sRef =   /* Reference salinity profile ( g/kg ) */
(PID.TID 0016.0001)    50 @  3.000000000000000E+01              /* K =  1: 50 */
(PID.TID 0016.0001)     ;
(PID.TID 0016.0001) rhoRef =   /* Density vertical profile from (Ref,sRef)( kg/m^3 ) */
(PID.TID 0016.0001)    50 @  9.998000000000000E+02              /* K =  1: 50 */
(PID.TID 0016.0001)     ;
(PID.TID 0016.0001) dBdrRef = /* Vertical grad. of reference buoyancy [(m/s/r)^2] */
(PID.TID 0016.0001)    50 @  0.000000000000000E+00              /* K =  1: 50 */
(PID.TID 0016.0001)     ;
(PID.TID 0016.0001) useStrainTensionVisc= /* Use StrainTension Form of Viscous Operator */
(PID.TID 0016.0001)                   F
(PID.TID 0016.0001)     ;
(PID.TID 0016.0001) useVariableVisc = /* Use variable horizontal viscosity */
(PID.TID 0016.0001)                   F
(PID.TID 0016.0001)     ;
(PID.TID 0016.0001) useHarmonicVisc = /* Use harmonic horizontal viscosity */
(PID.TID 0016.0001)                   F
(PID.TID 0016.0001)     ;
(PID.TID 0016.0001) useBiharmonicVisc= /* Use biharmonic horiz.  viscosity */
(PID.TID 0016.0001)                   F
(PID.TID 0016.0001)     ;
(PID.TID 0016.0001) useSmag3D = /* Use isotropic 3-D Smagorinsky viscosity */
(PID.TID 0016.0001)                   F
(PID.TID 0016.0001)     ;
(PID.TID 0016.0001) viscAh  =   /* Lateral harmonic viscosity ( m^2/s ) */
(PID.TID 0016.0001)                 0.000000000000000E+00
(PID.TID 0016.0001)     ;
(PID.TID 0016.0001) viscA4  =   /* Lateral biharmonic viscosity ( m^4/s ) */
(PID.TID 0016.0001)                 0.000000000000000E+00
(PID.TID 0016.0001)     ;
(PID.TID 0016.0001) no_slip_sides =  /* Viscous BCs: No-slip sides */
(PID.TID 0016.0001)                   T
(PID.TID 0016.0001)     ;
(PID.TID 0016.0001) sideDragFactor = /* side-drag scaling factor (non-dim) */
(PID.TID 0016.0001)                 2.000000000000000E+00
(PID.TID 0016.0001)     ;
(PID.TID 0016.0001) viscArNr = /* vertical profile of vertical viscosity ( m^2/s )*/
(PID.TID 0016.0001)    50 @  0.000000000000000E+00              /* K =  1: 50 */
(PID.TID 0016.0001)     ;
(PID.TID 0016.0001) no_slip_bottom =  /* Viscous BCs: No-slip bottom */
(PID.TID 0016.0001)                   T
(PID.TID 0016.0001)     ;
(PID.TID 0016.0001) bottomVisc_pCell = /* Partial-cell in bottom Visc. BC */
(PID.TID 0016.0001)                   F
(PID.TID 0016.0001)     ;
(PID.TID 0016.0001) bottomDragLinear = /* linear bottom-drag coefficient ( m/s ) */
(PID.TID 0016.0001)                 0.000000000000000E+00
(PID.TID 0016.0001)     ;
(PID.TID 0016.0001) bottomDragQuadratic = /* quadratic bottom-drag coefficient (-) */
(PID.TID 0016.0001)                 0.000000000000000E+00
(PID.TID 0016.0001)     ;
(PID.TID 0016.0001) selectBotDragQuadr = /* select quadratic bottom drag options */
(PID.TID 0016.0001)                      -1
(PID.TID 0016.0001)     ;
(PID.TID 0016.0001) diffKhT =   /* Laplacian diffusion of heat laterally ( m^2/s ) */
(PID.TID 0016.0001)                 0.000000000000000E+00
(PID.TID 0016.0001)     ;
(PID.TID 0016.0001) diffK4T =   /* Biharmonic diffusion of heat laterally ( m^4/s ) */
(PID.TID 0016.0001)                 0.000000000000000E+00
(PID.TID 0016.0001)     ;
(PID.TID 0016.0001) diffKhS =   /* Laplacian diffusion of salt laterally ( m^2/s ) */
(PID.TID 0016.0001)                 0.000000000000000E+00
(PID.TID 0016.0001)     ;
(PID.TID 0016.0001) diffK4S =   /* Biharmonic diffusion of salt laterally ( m^4/s ) */
(PID.TID 0016.0001)                 0.000000000000000E+00
(PID.TID 0016.0001)     ;
(PID.TID 0016.0001) diffKrNrT = /* vertical profile of vertical diffusion of Temp ( m^2/s )*/
(PID.TID 0016.0001)    50 @  0.000000000000000E+00              /* K =  1: 50 */
(PID.TID 0016.0001)     ;
(PID.TID 0016.0001) diffKrNrS = /* vertical profile of vertical diffusion of Salt ( m^2/s )*/
(PID.TID 0016.0001)    50 @  0.000000000000000E+00              /* K =  1: 50 */
(PID.TID 0016.0001)     ;
(PID.TID 0016.0001) diffKrBL79surf = /* Surface diffusion for Bryan and Lewis 79 ( m^2/s ) */
(PID.TID 0016.0001)                 0.000000000000000E+00
(PID.TID 0016.0001)     ;
(PID.TID 0016.0001) diffKrBL79deep = /* Deep diffusion for Bryan and Lewis 1979 ( m^2/s ) */
(PID.TID 0016.0001)                 0.000000000000000E+00
(PID.TID 0016.0001)     ;
(PID.TID 0016.0001) diffKrBL79scl = /* Depth scale for Bryan and Lewis 1979 ( m ) */
(PID.TID 0016.0001)                 2.000000000000000E+02
(PID.TID 0016.0001)     ;
(PID.TID 0016.0001) diffKrBL79Ho = /* Turning depth for Bryan and Lewis 1979 ( m ) */
(PID.TID 0016.0001)                -2.000000000000000E+03
(PID.TID 0016.0001)     ;
(PID.TID 0016.0001) ivdc_kappa = /* Implicit Vertical Diffusivity for Convection ( m^2/s) */
(PID.TID 0016.0001)                 0.000000000000000E+00
(PID.TID 0016.0001)     ;
(PID.TID 0016.0001) hMixCriteria=  /* Criteria for mixed-layer diagnostic */
(PID.TID 0016.0001)                -8.000000000000000E-01
(PID.TID 0016.0001)     ;
(PID.TID 0016.0001) dRhoSmall =  /* Parameter for mixed-layer diagnostic */
(PID.TID 0016.0001)                 1.000000000000000E-06
(PID.TID 0016.0001)     ;
(PID.TID 0016.0001) hMixSmooth=  /* Smoothing parameter for mixed-layer diagnostic */
(PID.TID 0016.0001)                 0.000000000000000E+00
(PID.TID 0016.0001)     ;
(PID.TID 0016.0001) eosType =  /* Type of Equation of State */
(PID.TID 0016.0001)               'LINEAR'
(PID.TID 0016.0001)     ;
(PID.TID 0016.0001) tAlpha = /* Linear EOS thermal expansion coefficient ( 1/oC ) */
(PID.TID 0016.0001)                 2.000000000000000E-04
(PID.TID 0016.0001)     ;
(PID.TID 0016.0001) sBeta  = /* Linear EOS haline contraction coefficient ( 1/(g/kg) ) */
(PID.TID 0016.0001)                 7.400000000000000E-04
(PID.TID 0016.0001)     ;
(PID.TID 0016.0001) rhoNil    = /* Reference density for Linear EOS ( kg/m^3 ) */
(PID.TID 0016.0001)                 9.998000000000000E+02
(PID.TID 0016.0001)     ;
(PID.TID 0016.0001) selectP_inEOS_Zc = /* select pressure to use in EOS (0,1,2,3) */
(PID.TID 0016.0001)                       0
(PID.TID 0016.0001)     0= -g*rhoConst*z ; 1= pRef (from tRef,sRef); 2= Hyd P ; 3= Hyd+NH P
(PID.TID 0016.0001)     ;
(PID.TID 0016.0001) surf_pRef = /* Surface reference pressure ( Pa ) */
(PID.TID 0016.0001)                 1.013250000000000E+05
(PID.TID 0016.0001)     ;
(PID.TID 0016.0001) HeatCapacity_Cp =  /* Specific heat capacity ( J/kg/K ) */
(PID.TID 0016.0001)                 3.994000000000000E+03
(PID.TID 0016.0001)     ;
(PID.TID 0016.0001) celsius2K = /* 0 degree Celsius converted to Kelvin ( K ) */
(PID.TID 0016.0001)                 2.731500000000000E+02
(PID.TID 0016.0001)     ;
(PID.TID 0016.0001) rhoConst  = /* Reference density (Boussinesq)  ( kg/m^3 ) */
(PID.TID 0016.0001)                 9.998000000000000E+02
(PID.TID 0016.0001)     ;
(PID.TID 0016.0001) rhoFacC = /* normalized Reference density @ cell-Center (-) */
(PID.TID 0016.0001)    50 @  1.000000000000000E+00              /* K =  1: 50 */
(PID.TID 0016.0001)     ;
(PID.TID 0016.0001) rhoFacF = /* normalized Reference density @ W-Interface (-) */
(PID.TID 0016.0001)    51 @  1.000000000000000E+00              /* K =  1: 51 */
(PID.TID 0016.0001)     ;
(PID.TID 0016.0001) rhoConstFresh = /* Fresh-water reference density ( kg/m^3 ) */
(PID.TID 0016.0001)                 9.998000000000000E+02
(PID.TID 0016.0001)     ;
(PID.TID 0016.0001) gravity =   /* Gravitational acceleration ( m/s^2 ) */
(PID.TID 0016.0001)                 9.810000000000000E+00
(PID.TID 0016.0001)     ;
(PID.TID 0016.0001) gBaro =   /* Barotropic gravity ( m/s^2 ) */
(PID.TID 0016.0001)                 9.810000000000000E+00
(PID.TID 0016.0001)     ;
(PID.TID 0016.0001) gravFacC = /* gravity factor (vs surf.) @ cell-Center (-) */
(PID.TID 0016.0001)    50 @  1.000000000000000E+00              /* K =  1: 50 */
(PID.TID 0016.0001)     ;
(PID.TID 0016.0001) gravFacF = /* gravity factor (vs surf.) @ W-Interface (-) */
(PID.TID 0016.0001)    51 @  1.000000000000000E+00              /* K =  1: 51 */
(PID.TID 0016.0001)     ;
(PID.TID 0016.0001) rotationPeriod =   /* Rotation Period ( s ) */
(PID.TID 0016.0001)                 8.616400000000000E+04
(PID.TID 0016.0001)     ;
(PID.TID 0016.0001) omega =   /* Angular velocity ( rad/s ) */
(PID.TID 0016.0001)                 7.292123516990375E-05
(PID.TID 0016.0001)     ;
(PID.TID 0016.0001) f0 =   /* Reference coriolis parameter ( 1/s ) */
(PID.TID 0016.0001)                 1.000000000000000E-04
(PID.TID 0016.0001)     ;
(PID.TID 0016.0001) beta =   /* Beta ( 1/(m.s) ) */
(PID.TID 0016.0001)                 9.999999999999999E-12
(PID.TID 0016.0001)     ;
(PID.TID 0016.0001) fPrime =   /* Second coriolis parameter ( 1/s ) */
(PID.TID 0016.0001)                 0.000000000000000E+00
(PID.TID 0016.0001)     ;
(PID.TID 0016.0001) rigidLid =   /* Rigid lid on/off flag */
(PID.TID 0016.0001)                   F
(PID.TID 0016.0001)     ;
(PID.TID 0016.0001) implicitFreeSurface =   /* Implicit free surface on/off flag */
(PID.TID 0016.0001)                   T
(PID.TID 0016.0001)     ;
(PID.TID 0016.0001) freeSurfFac =   /* Implicit free surface factor */
(PID.TID 0016.0001)                 1.000000000000000E+00
(PID.TID 0016.0001)     ;
(PID.TID 0016.0001) implicSurfPress =  /* Surface Pressure implicit factor (0-1) */
(PID.TID 0016.0001)                 1.000000000000000E+00
(PID.TID 0016.0001)     ;
(PID.TID 0016.0001) implicDiv2DFlow =  /* Barot. Flow Div. implicit factor (0-1) */
(PID.TID 0016.0001)                 1.000000000000000E+00
(PID.TID 0016.0001)     ;
(PID.TID 0016.0001) uniformLin_PhiSurf = /* use uniform Bo_surf on/off flag */
(PID.TID 0016.0001)                   T
(PID.TID 0016.0001)     ;
(PID.TID 0016.0001) uniformFreeSurfLev = /* free-surface level-index is uniform */
(PID.TID 0016.0001)                   T
(PID.TID 0016.0001)     ;
(PID.TID 0016.0001) sIceLoadFac =  /* scale factor for sIceLoad (0-1) */
(PID.TID 0016.0001)                 1.000000000000000E+00
(PID.TID 0016.0001)     ;
(PID.TID 0016.0001) hFacMin =   /* minimum partial cell factor (hFac) */
(PID.TID 0016.0001)                 1.000000000000000E+00
(PID.TID 0016.0001)     ;
(PID.TID 0016.0001) hFacMinDr = /* minimum partial cell thickness ( m) */
(PID.TID 0016.0001)                 0.000000000000000E+00
(PID.TID 0016.0001)     ;
(PID.TID 0016.0001) exactConserv =  /* Exact Volume Conservation on/off flag */
(PID.TID 0016.0001)                   T
(PID.TID 0016.0001)     ;
(PID.TID 0016.0001) linFSConserveTr = /* Tracer correction for Lin Free Surface on/off flag */
(PID.TID 0016.0001)                   F
(PID.TID 0016.0001)     ;
(PID.TID 0016.0001) nonlinFreeSurf = /* Non-linear Free Surf. options (-1,0,1,2,3)*/
(PID.TID 0016.0001)                       4
(PID.TID 0016.0001)      -1,0= Off ; 1,2,3= On, 2=+rescale gU,gV, 3=+update cg2d solv.
(PID.TID 0016.0001)     ;
(PID.TID 0016.0001) hFacInf =   /* lower threshold for hFac (nonlinFreeSurf only)*/
(PID.TID 0016.0001)                 2.000000000000000E-01
(PID.TID 0016.0001)     ;
(PID.TID 0016.0001) hFacSup =   /* upper threshold for hFac (nonlinFreeSurf only)*/
(PID.TID 0016.0001)                 2.000000000000000E+00
(PID.TID 0016.0001)     ;
(PID.TID 0016.0001) select_rStar = /* r* Vertical coord. options (=0 r coord.; >0 uses r*)*/
(PID.TID 0016.0001)                       2
(PID.TID 0016.0001)     ;
(PID.TID 0016.0001) useRealFreshWaterFlux = /* Real Fresh Water Flux on/off flag*/
(PID.TID 0016.0001)                   T
(PID.TID 0016.0001)     ;
(PID.TID 0016.0001) temp_EvPrRn = /* Temp. of Evap/Prec/R (UNSET=use local T)(oC)*/
(PID.TID 0016.0001)                 1.234567000000000E+05
(PID.TID 0016.0001)     ;
(PID.TID 0016.0001) salt_EvPrRn = /* Salin. of Evap/Prec/R (UNSET=use local S)(g/kg)*/
(PID.TID 0016.0001)                 0.000000000000000E+00
(PID.TID 0016.0001)     ;
(PID.TID 0016.0001) selectAddFluid = /* option for mass source/sink of fluid (=0: off) */
(PID.TID 0016.0001)                       0
(PID.TID 0016.0001)     ;
(PID.TID 0016.0001) temp_addMass = /* Temp. of addMass array (UNSET=use local T)(oC)*/
(PID.TID 0016.0001)                 1.234567000000000E+05
(PID.TID 0016.0001)     ;
(PID.TID 0016.0001) salt_addMass = /* Salin. of addMass array (UNSET=use local S)(g/kg)*/
(PID.TID 0016.0001)                 0.000000000000000E+00
(PID.TID 0016.0001)     ;
(PID.TID 0016.0001) use3Dsolver = /* use 3-D pressure solver on/off flag */
(PID.TID 0016.0001)                   F
(PID.TID 0016.0001)     ;
(PID.TID 0016.0001) nonHydrostatic =  /* Non-Hydrostatic on/off flag */
(PID.TID 0016.0001)                   F
(PID.TID 0016.0001)     ;
(PID.TID 0016.0001) nh_Am2 = /* Non-Hydrostatic terms scaling factor */
(PID.TID 0016.0001)                 1.000000000000000E+00
(PID.TID 0016.0001)     ;
(PID.TID 0016.0001) implicitNHPress = /* Non-Hyd Pressure implicit factor (0-1)*/
(PID.TID 0016.0001)                 1.000000000000000E+00
(PID.TID 0016.0001)     ;
(PID.TID 0016.0001) selectNHfreeSurf = /* Non-Hyd (free-)Surface option */
(PID.TID 0016.0001)                       0
(PID.TID 0016.0001)     ;
(PID.TID 0016.0001) quasiHydrostatic = /* Quasi-Hydrostatic on/off flag */
(PID.TID 0016.0001)                   F
(PID.TID 0016.0001)     ;
(PID.TID 0016.0001) calc_wVelocity = /* vertical velocity calculation on/off flag */
(PID.TID 0016.0001)                   T
(PID.TID 0016.0001)     ;
(PID.TID 0016.0001) momStepping =  /* Momentum equation on/off flag */
(PID.TID 0016.0001)                   T
(PID.TID 0016.0001)     ;
(PID.TID 0016.0001) vectorInvariantMomentum= /* Vector-Invariant Momentum on/off */
(PID.TID 0016.0001)                   F
(PID.TID 0016.0001)     ;
(PID.TID 0016.0001) momAdvection =  /* Momentum advection on/off flag */
(PID.TID 0016.0001)                   T
(PID.TID 0016.0001)     ;
(PID.TID 0016.0001) momViscosity =  /* Momentum viscosity on/off flag */
(PID.TID 0016.0001)                   T
(PID.TID 0016.0001)     ;
(PID.TID 0016.0001) momImplVertAdv= /* Momentum implicit vert. advection on/off*/
(PID.TID 0016.0001)                   F
(PID.TID 0016.0001)     ;
(PID.TID 0016.0001) implicitViscosity = /* Implicit viscosity on/off flag */
(PID.TID 0016.0001)                   T
(PID.TID 0016.0001)     ;
(PID.TID 0016.0001) selectImplicitDrag= /* Implicit bot Drag options (0,1,2)*/
(PID.TID 0016.0001)                       0
(PID.TID 0016.0001)     0= Expl. ; 1= Impl. on provis. Vel ; 2= Fully Impl (with surf.P)
(PID.TID 0016.0001)     ;
(PID.TID 0016.0001) selectMetricTerms= /* Metric-Terms on/off flag (=0/1) */
(PID.TID 0016.0001)                       1
(PID.TID 0016.0001)     ;
(PID.TID 0016.0001) useNHMTerms = /* Non-Hydrostatic Metric-Terms on/off */
(PID.TID 0016.0001)                   F
(PID.TID 0016.0001)     ;
(PID.TID 0016.0001) selectCoriMap = /* Coriolis Map options (0,1,2,3)*/
(PID.TID 0016.0001)                       2
(PID.TID 0016.0001)     0= f-Plane ; 1= Beta-Plane ; 2= Spherical ; 3= read from file
(PID.TID 0016.0001)     ;
(PID.TID 0016.0001) select3dCoriScheme= /* 3-D Coriolis on/off flag (=0/1) */
(PID.TID 0016.0001)                       0
(PID.TID 0016.0001)     ;
(PID.TID 0016.0001) useCoriolis =  /* Coriolis on/off flag */
(PID.TID 0016.0001)                   T
(PID.TID 0016.0001)     ;
(PID.TID 0016.0001) useCDscheme =  /* CD scheme on/off flag */
(PID.TID 0016.0001)                   F
(PID.TID 0016.0001)     ;
(PID.TID 0016.0001) selectCoriScheme= /* Scheme selector for Coriolis-Term */
(PID.TID 0016.0001)                       0
(PID.TID 0016.0001)    = 0 : original discretization (simple averaging, no hFac)
(PID.TID 0016.0001)    = 1 : Wet-point averaging (Jamar & Ozer 1986)
(PID.TID 0016.0001)    = 2 : energy conserving scheme (no hFac weight)
(PID.TID 0016.0001)    = 3 : energy conserving scheme using Wet-point averaging
(PID.TID 0016.0001)     ;
(PID.TID 0016.0001) momForcing =  /* Momentum forcing on/off flag */
(PID.TID 0016.0001)                   T
(PID.TID 0016.0001)     ;
(PID.TID 0016.0001) momTidalForcing = /* Momentum Tidal forcing on/off flag */
(PID.TID 0016.0001)                   T
(PID.TID 0016.0001)     ;
(PID.TID 0016.0001) momPressureForcing =  /* Momentum pressure term on/off flag */
(PID.TID 0016.0001)                   T
(PID.TID 0016.0001)     ;
(PID.TID 0016.0001) implicitIntGravWave= /* Implicit Internal Gravity Wave flag */
(PID.TID 0016.0001)                   F
(PID.TID 0016.0001)     ;
(PID.TID 0016.0001) staggerTimeStep =    /* Stagger time stepping on/off flag */
(PID.TID 0016.0001)                   T
(PID.TID 0016.0001)     ;
(PID.TID 0016.0001) doResetHFactors = /* reset thickness factors @ each time-step */
(PID.TID 0016.0001)                   F
(PID.TID 0016.0001)     ;
(PID.TID 0016.0001) multiDimAdvection =  /* enable/disable Multi-Dim Advection */
(PID.TID 0016.0001)                   T
(PID.TID 0016.0001)     ;
(PID.TID 0016.0001) useMultiDimAdvec =   /* Multi-Dim Advection is/is-not used */
(PID.TID 0016.0001)                   T
(PID.TID 0016.0001)     ;
(PID.TID 0016.0001) implicitDiffusion = /* Implicit Diffusion on/off flag */
(PID.TID 0016.0001)                   T
(PID.TID 0016.0001)     ;
(PID.TID 0016.0001) tempStepping =  /* Temperature equation on/off flag */
(PID.TID 0016.0001)                   T
(PID.TID 0016.0001)     ;
(PID.TID 0016.0001) tempAdvection = /* Temperature advection on/off flag */
(PID.TID 0016.0001)                   T
(PID.TID 0016.0001)     ;
(PID.TID 0016.0001) tempImplVertAdv = /* Temp. implicit vert. advection on/off */
(PID.TID 0016.0001)                   F
(PID.TID 0016.0001)     ;
(PID.TID 0016.0001) tempForcing  =  /* Temperature forcing on/off flag */
(PID.TID 0016.0001)                   T
(PID.TID 0016.0001)     ;
(PID.TID 0016.0001) doThetaClimRelax = /* apply SST relaxation on/off flag */
(PID.TID 0016.0001)                   F
(PID.TID 0016.0001)     ;
(PID.TID 0016.0001) tempIsActiveTr = /* Temp. is a dynamically Active Tracer */
(PID.TID 0016.0001)                   T
(PID.TID 0016.0001)     ;
(PID.TID 0016.0001) saltStepping =  /* Salinity equation on/off flag */
(PID.TID 0016.0001)                   T
(PID.TID 0016.0001)     ;
(PID.TID 0016.0001) saltAdvection = /* Salinity advection on/off flag */
(PID.TID 0016.0001)                   T
(PID.TID 0016.0001)     ;
(PID.TID 0016.0001) saltImplVertAdv = /* Sali. implicit vert. advection on/off */
(PID.TID 0016.0001)                   F
(PID.TID 0016.0001)     ;
(PID.TID 0016.0001) saltForcing  =  /* Salinity forcing on/off flag */
(PID.TID 0016.0001)                   T
(PID.TID 0016.0001)     ;
(PID.TID 0016.0001) doSaltClimRelax = /* apply SSS relaxation on/off flag */
(PID.TID 0016.0001)                   F
(PID.TID 0016.0001)     ;
(PID.TID 0016.0001) saltIsActiveTr = /* Salt  is a dynamically Active Tracer */
(PID.TID 0016.0001)                   T
(PID.TID 0016.0001)     ;
(PID.TID 0016.0001)  readBinaryPrec = /* Precision used for reading binary files */
(PID.TID 0016.0001)                      32
(PID.TID 0016.0001)     ;
(PID.TID 0016.0001) writeBinaryPrec = /* Precision used for writing binary files */
(PID.TID 0016.0001)                      32
(PID.TID 0016.0001)     ;
(PID.TID 0016.0001)  rwSuffixType =   /* select format of mds file suffix */
(PID.TID 0016.0001)                       0
(PID.TID 0016.0001)    = 0 : myIter (I10.10) ;   = 1 : 100*myTime (100th sec) ;
(PID.TID 0016.0001)    = 2 : myTime (seconds);   = 3 : myTime/360 (10th of hr);
(PID.TID 0016.0001)    = 4 : myTime/3600 (hours)
(PID.TID 0016.0001)     ;
(PID.TID 0016.0001)  globalFiles = /* write "global" (=not per tile) files */
(PID.TID 0016.0001)                   F
(PID.TID 0016.0001)     ;
(PID.TID 0016.0001)  useSingleCpuIO = /* only master MPI process does I/O */
(PID.TID 0016.0001)                   T
(PID.TID 0016.0001)     ;
(PID.TID 0016.0001)  useSingleCpuInput = /* only master process reads input */
(PID.TID 0016.0001)                   T
(PID.TID 0016.0001)     ;
(PID.TID 0016.0001) /* debLev[*]  : level of debug & auxiliary message printing */
(PID.TID 0016.0001) debLevZero =  0 ; /* level of disabled aux. msg printing */
(PID.TID 0016.0001)    debLevA =  1 ; /* level of minimum  aux. msg printing */
(PID.TID 0016.0001)    debLevB =  2 ; /* level of low aux. print (report read-file opening)*/
(PID.TID 0016.0001)    debLevC =  3 ; /* level of moderate debug prt (most pkgs debug msg) */
(PID.TID 0016.0001)    debLevD =  4 ; /* level of enhanced debug prt (add DEBUG_STATS prt) */
(PID.TID 0016.0001)    debLevE =  5 ; /* level of extensive debug printing */
(PID.TID 0016.0001) debugLevel =  /* select debug printing level */
(PID.TID 0016.0001)                       0
(PID.TID 0016.0001)     ;
(PID.TID 0016.0001)  plotLevel =  /* select PLOT_FIELD printing level */
(PID.TID 0016.0001)                       0
(PID.TID 0016.0001)     ;
(PID.TID 0016.0001) //
(PID.TID 0016.0001) // Elliptic solver(s) paramters ( PARM02 in namelist )
(PID.TID 0016.0001) //
(PID.TID 0016.0001) cg2dMaxIters =   /* Upper limit on 2d con. grad iterations  */
(PID.TID 0016.0001)                     300
(PID.TID 0016.0001)     ;
(PID.TID 0016.0001) cg2dMinItersNSA =   /* Minimum number of iterations of 2d con. grad solver  */
(PID.TID 0016.0001)                       0
(PID.TID 0016.0001)     ;
(PID.TID 0016.0001) cg2dUseMinResSol= /* use cg2d last-iter(=0) / min-resid.(=1) solution */
(PID.TID 0016.0001)                       0
(PID.TID 0016.0001)     ;
(PID.TID 0016.0001) cg2dTargetResidual =   /* 2d con. grad target residual  */
(PID.TID 0016.0001)                 1.000000000000000E-10
(PID.TID 0016.0001)     ;
(PID.TID 0016.0001) cg2dTargetResWunit =   /* CG2d target residual [W units] */
(PID.TID 0016.0001)                -1.000000000000000E+00
(PID.TID 0016.0001)     ;
(PID.TID 0016.0001) cg2dPreCondFreq =   /* Freq. for updating cg2d preconditioner */
(PID.TID 0016.0001)                       1
(PID.TID 0016.0001)     ;
(PID.TID 0016.0001) useSRCGSolver =  /* use single reduction CG solver(s) */
(PID.TID 0016.0001)                   F
(PID.TID 0016.0001)     ;
(PID.TID 0016.0001) useNSACGSolver =  /* use not-self-adjoint CG solver */
(PID.TID 0016.0001)                   F
(PID.TID 0016.0001)     ;
(PID.TID 0016.0001) printResidualFreq = /* Freq. for printing CG residual */
(PID.TID 0016.0001)                      -1
(PID.TID 0016.0001)     ;
(PID.TID 0016.0001) //
(PID.TID 0016.0001) // Time stepping paramters ( PARM03 in namelist )
(PID.TID 0016.0001) //
(PID.TID 0016.0001) deltaTMom =   /* Momentum equation timestep ( s ) */
(PID.TID 0016.0001)                 3.000000000000000E+02
(PID.TID 0016.0001)     ;
(PID.TID 0016.0001) deltaTFreeSurf = /* FreeSurface equation timestep ( s ) */
(PID.TID 0016.0001)                 3.000000000000000E+02
(PID.TID 0016.0001)     ;
(PID.TID 0016.0001) dTtracerLev =  /* Tracer equation timestep ( s ) */
(PID.TID 0016.0001)    50 @  3.000000000000000E+02              /* K =  1: 50 */
(PID.TID 0016.0001)     ;
(PID.TID 0016.0001) deltaTClock  =   /* Model clock timestep ( s ) */
(PID.TID 0016.0001)                 3.000000000000000E+02
(PID.TID 0016.0001)     ;
(PID.TID 0016.0001) cAdjFreq =   /* Convective adjustment interval ( s ) */
(PID.TID 0016.0001)                 0.000000000000000E+00
(PID.TID 0016.0001)     ;
(PID.TID 0016.0001) momForcingOutAB = /* =1: take Momentum Forcing out of Adams-Bash. stepping */
(PID.TID 0016.0001)                       0
(PID.TID 0016.0001)     ;
(PID.TID 0016.0001) tracForcingOutAB = /* =1: take T,S,pTr Forcing out of Adams-Bash. stepping */
(PID.TID 0016.0001)                       0
(PID.TID 0016.0001)     ;
(PID.TID 0016.0001) momDissip_In_AB = /* put Dissipation Tendency in Adams-Bash. stepping */
(PID.TID 0016.0001)                   T
(PID.TID 0016.0001)     ;
(PID.TID 0016.0001) doAB_onGtGs = /* apply AB on Tendencies (rather than on T,S)*/
(PID.TID 0016.0001)                   T
(PID.TID 0016.0001)     ;
(PID.TID 0016.0001) abEps =   /* Adams-Bashforth-2 stabilizing weight */
(PID.TID 0016.0001)                 1.000000000000000E-02
(PID.TID 0016.0001)     ;
(PID.TID 0016.0001) applyExchUV_early = /* Apply EXCH to U,V earlier in time-step */
(PID.TID 0016.0001)                   F
(PID.TID 0016.0001)     ;
(PID.TID 0016.0001) pickupStrictlyMatch= /* stop if pickup do not strictly match */
(PID.TID 0016.0001)                   T
(PID.TID 0016.0001)     ;
(PID.TID 0016.0001) nIter0   =   /* Run starting timestep number */
(PID.TID 0016.0001)                       0
(PID.TID 0016.0001)     ;
(PID.TID 0016.0001) nTimeSteps = /* Number of timesteps */
(PID.TID 0016.0001)                  105120
(PID.TID 0016.0001)     ;
(PID.TID 0016.0001) nEndIter =   /* Run ending timestep number */
(PID.TID 0016.0001)                  105120
(PID.TID 0016.0001)     ;
(PID.TID 0016.0001) baseTime =   /* Model base time ( s ) */
(PID.TID 0016.0001)                 0.000000000000000E+00
(PID.TID 0016.0001)     ;
(PID.TID 0016.0001) startTime =  /* Run start time ( s ) */
(PID.TID 0016.0001)                 0.000000000000000E+00
(PID.TID 0016.0001)     ;
(PID.TID 0016.0001) endTime  =   /* Integration ending time ( s ) */
(PID.TID 0016.0001)                 3.153600000000000E+07
(PID.TID 0016.0001)     ;
(PID.TID 0016.0001) pChkPtFreq = /* Permanent restart/pickup file interval ( s ) */
(PID.TID 0016.0001)                 2.592000000000000E+06
(PID.TID 0016.0001)     ;
(PID.TID 0016.0001) chkPtFreq  = /* Rolling restart/pickup file interval ( s ) */
(PID.TID 0016.0001)                 0.000000000000000E+00
(PID.TID 0016.0001)     ;
(PID.TID 0016.0001) pickup_write_mdsio =   /* Model IO flag. */
(PID.TID 0016.0001)                   T
(PID.TID 0016.0001)     ;
(PID.TID 0016.0001) pickup_read_mdsio =   /* Model IO flag. */
(PID.TID 0016.0001)                   T
(PID.TID 0016.0001)     ;
(PID.TID 0016.0001) writePickupAtEnd =   /* Model IO flag. */
(PID.TID 0016.0001)                   T
(PID.TID 0016.0001)     ;
(PID.TID 0016.0001) dumpFreq =   /* Model state write out interval ( s ). */
(PID.TID 0016.0001)                 0.000000000000000E+00
(PID.TID 0016.0001)     ;
(PID.TID 0016.0001) dumpInitAndLast= /* write out Initial & Last iter. model state */
(PID.TID 0016.0001)                   F
(PID.TID 0016.0001)     ;
(PID.TID 0016.0001) snapshot_mdsio =   /* Model IO flag. */
(PID.TID 0016.0001)                   T
(PID.TID 0016.0001)     ;
(PID.TID 0016.0001) monitorFreq =   /* Monitor output interval ( s ). */
(PID.TID 0016.0001)                 3.000000000000000E+02
(PID.TID 0016.0001)     ;
(PID.TID 0016.0001) monitorSelect = /* select group of variables to monitor */
(PID.TID 0016.0001)                       3
(PID.TID 0016.0001)     ;
(PID.TID 0016.0001) monitor_stdio =   /* Model IO flag. */
(PID.TID 0016.0001)                   T
(PID.TID 0016.0001)     ;
(PID.TID 0016.0001) externForcingPeriod =   /* forcing period (s) */
(PID.TID 0016.0001)                 0.000000000000000E+00
(PID.TID 0016.0001)     ;
(PID.TID 0016.0001) externForcingCycle =   /* period of the cyle (s). */
(PID.TID 0016.0001)                 0.000000000000000E+00
(PID.TID 0016.0001)     ;
(PID.TID 0016.0001) tauThetaClimRelax =   /* relaxation time scale (s) */
(PID.TID 0016.0001)                 0.000000000000000E+00
(PID.TID 0016.0001)     ;
(PID.TID 0016.0001) tauSaltClimRelax =   /* relaxation time scale (s) */
(PID.TID 0016.0001)                 0.000000000000000E+00
(PID.TID 0016.0001)     ;
(PID.TID 0016.0001) latBandClimRelax =   /* max. Lat. where relaxation */
(PID.TID 0016.0001)                 1.800000000000000E+02
(PID.TID 0016.0001)     ;
(PID.TID 0016.0001) //
(PID.TID 0016.0001) // Gridding paramters ( PARM04 in namelist )
(PID.TID 0016.0001) //
(PID.TID 0016.0001) usingCartesianGrid = /* Cartesian coordinates flag ( True/False ) */
(PID.TID 0016.0001)                   F
(PID.TID 0016.0001)     ;
(PID.TID 0016.0001) usingCylindricalGrid = /* Cylindrical coordinates flag ( True/False ) */
(PID.TID 0016.0001)                   F
(PID.TID 0016.0001)     ;
(PID.TID 0016.0001) usingSphericalPolarGrid = /* Spherical coordinates flag ( True/False ) */
(PID.TID 0016.0001)                   T
(PID.TID 0016.0001)     ;
(PID.TID 0016.0001) usingCurvilinearGrid = /* Curvilinear coordinates flag ( True/False ) */
(PID.TID 0016.0001)                   F
(PID.TID 0016.0001)     ;
(PID.TID 0016.0001) useMin4hFacEdges = /* set hFacW,S as minimum of adjacent hFacC factor */
(PID.TID 0016.0001)                   F
(PID.TID 0016.0001)     ;
(PID.TID 0016.0001) interViscAr_pCell = /* account for partial-cell in interior vert. viscosity */
(PID.TID 0016.0001)                   F
(PID.TID 0016.0001)     ;
(PID.TID 0016.0001) interDiffKr_pCell = /* account for partial-cell in interior vert. diffusion */
(PID.TID 0016.0001)                   F
(PID.TID 0016.0001)     ;
(PID.TID 0016.0001) pCellMix_select = /* option to enhance mixing near surface & bottom */
(PID.TID 0016.0001)                       0
(PID.TID 0016.0001)     ;
(PID.TID 0016.0001) selectSigmaCoord = /* Hybrid-Sigma Vert. Coordinate option */
(PID.TID 0016.0001)                       0
(PID.TID 0016.0001)     ;
(PID.TID 0016.0001) rSigmaBnd = /* r/sigma transition ( units of r ==  m ) */
(PID.TID 0016.0001)                 1.234567000000000E+05
(PID.TID 0016.0001)     ;
(PID.TID 0016.0001) rkSign =   /* index orientation relative to vertical coordinate */
(PID.TID 0016.0001)                -1.000000000000000E+00
(PID.TID 0016.0001)     ;
(PID.TID 0016.0001) gravitySign = /* gravity orientation relative to vertical coordinate */
(PID.TID 0016.0001)                -1.000000000000000E+00
(PID.TID 0016.0001)     ;
(PID.TID 0016.0001) seaLev_Z =  /* reference height of sea-level [m] */
(PID.TID 0016.0001)                 0.000000000000000E+00
(PID.TID 0016.0001)     ;
(PID.TID 0016.0001) top_Pres =  /* reference pressure at the top [Pa] */
(PID.TID 0016.0001)                 0.000000000000000E+00
(PID.TID 0016.0001)     ;
(PID.TID 0016.0001) mass2rUnit = /* convert mass per unit area [kg/m2] to r-units [m] */
(PID.TID 0016.0001)                 1.000200040008002E-03
(PID.TID 0016.0001)     ;
(PID.TID 0016.0001) rUnit2mass = /* convert r-units [m] to mass per unit area [kg/m2] */
(PID.TID 0016.0001)                 9.998000000000000E+02
(PID.TID 0016.0001)     ;
(PID.TID 0016.0001) drC =   /* C spacing ( units of r ) */
(PID.TID 0016.0001)                 5.000000000000000E+00,      /* K =  1 */
(PID.TID 0016.0001)     6 @  1.000000000000000E+01,             /* K =  2:  7 */
(PID.TID 0016.0001)                 1.000500000000000E+01,      /* K =  8 */
(PID.TID 0016.0001)                 1.002000000000000E+01,      /* K =  9 */
(PID.TID 0016.0001)                 1.007000000000000E+01,      /* K = 10 */
(PID.TID 0016.0001)                 1.021500000000000E+01,      /* K = 11 */
[...]
 cg2d: Sum(rhs),rhsMax =  -2.43751242612464E+03  2.32125105421416E+00
 cg2d: Sum(rhs),rhsMax =  -2.47575529048261E+03  2.28539480882982E+00
 cg2d: Sum(rhs),rhsMax =  -2.52739284662941E+03  2.23870155221325E+00
 cg2d: Sum(rhs),rhsMax =  -2.59262352162792E+03  2.18237559044022E+00
 cg2d: Sum(rhs),rhsMax =  -2.67301359424653E+03  2.11674130688319E+00
 cg2d: Sum(rhs),rhsMax =  -2.77306104981478E+03  2.04037278197675E+00
 cg2d: Sum(rhs),rhsMax =  -2.89702989155675E+03  1.95306175655699E+00
 cg2d: Sum(rhs),rhsMax =  -3.01659929671330E+03  1.87564795064648E+00
 cg2d: Sum(rhs),rhsMax =  -2.93044780100211E+03  1.93078965162493E+00
 cg2d: Sum(rhs),rhsMax =  -2.85566450900820E+03  1.98135259620082E+00
 cg2d: Sum(rhs),rhsMax =  -2.78967323022931E+03  2.02822259879406E+00
 cg2d: Sum(rhs),rhsMax =  -2.73282286026504E+03  2.07041530977723E+00
 cg2d: Sum(rhs),rhsMax =  -2.68555280581235E+03  2.10685795362360E+00
 cg2d: Sum(rhs),rhsMax =  -2.64608424428669E+03  2.13828350364075E+00
 cg2d: Sum(rhs),rhsMax =  -2.61550270346750E+03  2.16328519993527E+00
 cg2d: Sum(rhs),rhsMax =  -2.59319532096493E+03  2.18189437681715E+00
 cg2d: Sum(rhs),rhsMax =  -2.57870782771361E+03  2.19415252398664E+00
 cg2d: Sum(rhs),rhsMax =  -2.57362802257564E+03  2.19848332360767E+00
 cg2d: Sum(rhs),rhsMax =  -2.57823187051387E+03  2.19455757781561E+00
 cg2d: Sum(rhs),rhsMax =  -2.59117093836702E+03  2.18359900731508E+00
 cg2d: Sum(rhs),rhsMax =  -2.61396833102413E+03  2.16455502603015E+00
 cg2d: Sum(rhs),rhsMax =  -2.64646169645356E+03  2.13797853049758E+00
 cg2d: Sum(rhs),rhsMax =  -2.68948683281409E+03  2.10377616271194E+00
 cg2d: Sum(rhs),rhsMax =  -2.74460282884499E+03  2.06152898675799E+00
 cg2d: Sum(rhs),rhsMax =  -2.77457713611629E+03  2.03925788011135E+00
 cg2d: Sum(rhs),rhsMax =  -2.73698008969779E+03  2.06727053298611E+00
 cg2d: Sum(rhs),rhsMax =  -2.76421074825390E+03  2.04690553800069E+00
 cg2d: Sum(rhs),rhsMax =  -2.76719276481736E+03  2.04469972628574E+00
 cg2d: Sum(rhs),rhsMax =  -2.75513238581838E+03  2.05365024124649E+00
 cg2d: Sum(rhs),rhsMax =  -2.75604152637292E+03  2.05297279981417E+00
 cg2d: Sum(rhs),rhsMax =  -2.76861470707546E+03  2.04364958198848E+00
 cg2d: Sum(rhs),rhsMax =  -2.79269688402063E+03  2.02602664155088E+00
 cg2d: Sum(rhs),rhsMax =  -2.83028874019791E+03  1.99911698352243E+00
 cg2d: Sum(rhs),rhsMax =  -2.88222866777395E+03  1.96309139245772E+00
 cg2d: Sum(rhs),rhsMax =  -2.78206250520609E+03  2.03377108825339E+00
 cg2d: Sum(rhs),rhsMax =  -2.62001813461677E+03  2.15955691834535E+00
 cg2d: Sum(rhs),rhsMax =  -2.49984946865437E+03  2.26336759862888E+00
 cg2d: Sum(rhs),rhsMax =  -2.41577053179178E+03  2.34214227483159E+00
 cg2d: Sum(rhs),rhsMax =  -2.36278727316882E+03  2.39466258899120E+00
 cg2d: Sum(rhs),rhsMax =  -2.33883760523519E+03  2.41918390406287E+00
 cg2d: Sum(rhs),rhsMax =  -2.34343470452127E+03  2.41443820810778E+00
 cg2d: Sum(rhs),rhsMax =  -2.37783721198799E+03  2.37950615806516E+00
 cg2d: Sum(rhs),rhsMax =  -2.44521023507468E+03  2.31394348332143E+00
 cg2d: Sum(rhs),rhsMax =  -2.55060227057558E+03  2.21833029558352E+00
 cg2d: Sum(rhs),rhsMax =  -2.70316381643076E+03  2.09313185327881E+00
 cg2d: Sum(rhs),rhsMax =  -2.91591404346661E+03  1.94041326474606E+00
 cg2d: Sum(rhs),rhsMax =  -2.95954713378303E+03  1.91180543273508E+00
 cg2d: Sum(rhs),rhsMax =  -2.91332557149562E+03  1.94213731007662E+00
 cg2d: Sum(rhs),rhsMax =  -2.84519022357592E+03  1.98864674914097E+00
 cg2d: Sum(rhs),rhsMax =  -2.73392083396219E+03  2.06958380744399E+00
 cg2d: Sum(rhs),rhsMax =  -2.68644341767717E+03  2.10615948639416E+00
 cg2d: Sum(rhs),rhsMax =  -2.69877307113195E+03  2.09653725588300E+00
 cg2d: Sum(rhs),rhsMax =  -2.77176196239971E+03  2.04132907715615E+00
 cg2d: Sum(rhs),rhsMax =  -2.83189197201693E+03  1.99798521437671E+00
 cg2d: Sum(rhs),rhsMax =  -2.78547291363665E+03  2.03128102991132E+00
 cg2d: Sum(rhs),rhsMax =  -2.75463534793669E+03  2.05402079554377E+00
 cg2d: Sum(rhs),rhsMax =  -2.55346321765919E+03  2.21584483758055E+00
 cg2d: Sum(rhs),rhsMax =  -2.39896259660669E+03  2.35855210781744E+00
 cg2d: Sum(rhs),rhsMax =  -2.28100944319194E+03  2.48051506568262E+00
 cg2d: Sum(rhs),rhsMax =  -2.19370211680986E+03  2.57923728360624E+00
 cg2d: Sum(rhs),rhsMax =  -2.13262127500402E+03  2.65310974579454E+00
 cg2d: Sum(rhs),rhsMax =  -2.09434899642628E+03  2.70159285699597E+00
 cg2d: Sum(rhs),rhsMax =  -2.07759667062969E+03  2.72337666342478E+00
 cg2d: Sum(rhs),rhsMax =  -2.08117443769151E+03  2.71869488031864E+00
 cg2d: Sum(rhs),rhsMax =  -2.10559768843769E+03  2.68716019203085E+00
 cg2d: Sum(rhs),rhsMax =  -2.15215627849410E+03  2.62902761539277E+00
 cg2d: Sum(rhs),rhsMax =  -2.22419007571989E+03  2.54388253529574E+00
 cg2d: Sum(rhs),rhsMax =  -2.32621786692099E+03  2.43230798338378E+00
 cg2d: Sum(rhs),rhsMax =  -2.45877435581843E+03  2.30117833928627E+00
 cg2d: Sum(rhs),rhsMax =  -2.50350163975251E+03  2.26006574110384E+00
 cg2d: Sum(rhs),rhsMax =  -2.57751838301086E+03  2.19516505724882E+00
 cg2d: Sum(rhs),rhsMax =  -2.68335663035390E+03  2.10858229755905E+00
 cg2d: Sum(rhs),rhsMax =  -2.76803503512973E+03  2.04407755573684E+00
 cg2d: Sum(rhs),rhsMax =  -2.83026371985623E+03  1.99913465628897E+00
 cg2d: Sum(rhs),rhsMax =  -2.90837290550095E+03  1.94544457421541E+00
 cg2d: Sum(rhs),rhsMax =  -3.00470683907212E+03  1.88307165784905E+00
 cg2d: Sum(rhs),rhsMax =  -3.12324016518389E+03  1.81160525273560E+00
 cg2d: Sum(rhs),rhsMax =  -3.26947162714725E+03  1.73057880111926E+00
 cg2d: Sum(rhs),rhsMax =  -3.34159271513039E+03  1.69322798172941E+00
 cg2d: Sum(rhs),rhsMax =  -3.42574136911769E+03  1.65163615088058E+00
 cg2d: Sum(rhs),rhsMax =  -3.29868983945229E+03  1.71525016421107E+00
 cg2d: Sum(rhs),rhsMax =  -2.95598505051351E+03  1.91410923672263E+00
 cg2d: Sum(rhs),rhsMax =  -2.69761813075813E+03  2.09743485346898E+00
 cg2d: Sum(rhs),rhsMax =  -2.49960622797888E+03  2.26358785054593E+00
 cg2d: Sum(rhs),rhsMax =  -2.34794300252693E+03  2.40980223229973E+00
 cg2d: Sum(rhs),rhsMax =  -2.23156871638294E+03  2.53547123477016E+00
 cg2d: Sum(rhs),rhsMax =  -2.14304019111881E+03  2.64021100129160E+00
 cg2d: Sum(rhs),rhsMax =  -2.07850805989681E+03  2.72218251060466E+00
 cg2d: Sum(rhs),rhsMax =  -2.03518884758360E+03  2.78012445651902E+00
 cg2d: Sum(rhs),rhsMax =  -2.01093559782764E+03  2.81365464658052E+00
 cg2d: Sum(rhs),rhsMax =  -2.00477020966904E+03  2.82230764479287E+00
 cg2d: Sum(rhs),rhsMax =  -2.01667354808480E+03  2.80564908196238E+00
 cg2d: Sum(rhs),rhsMax =  -2.04723774075518E+03  2.76376220316982E+00
 cg2d: Sum(rhs),rhsMax =  -2.09781781947538E+03  2.69712566852774E+00
 cg2d: Sum(rhs),rhsMax =  -2.17051215030058E+03  2.60679410986867E+00
 cg2d: Sum(rhs),rhsMax =  -2.26859570202336E+03  2.49408842825342E+00
 cg2d: Sum(rhs),rhsMax =  -2.39682455612372E+03  2.36065600811120E+00
 cg2d: Sum(rhs),rhsMax =  -2.56277848425830E+03  2.20779061614427E+00
 cg2d: Sum(rhs),rhsMax =  -2.77673487367356E+03  2.03767321916349E+00
 cg2d: Sum(rhs),rhsMax =  -3.05350623186426E+03  1.85297748200353E+00
 cg2d: Sum(rhs),rhsMax =  -3.41714720953357E+03  1.65579003240373E+00
 cg2d: Sum(rhs),rhsMax =  -3.50680954994416E+03  1.61345468244548E+00
 cg2d: Sum(rhs),rhsMax =  -3.44883182675231E+03  1.64057819372713E+00
 cg2d: Sum(rhs),rhsMax =  -3.36388354215989E+03  1.68200777996285E+00
 cg2d: Sum(rhs),rhsMax =  -3.30780935953184E+03  1.71052127671672E+00
 cg2d: Sum(rhs),rhsMax =  -3.28066356814270E+03  1.72467495409935E+00
 cg2d: Sum(rhs),rhsMax =  -3.28234022293562E+03  1.72379397152850E+00
 cg2d: Sum(rhs),rhsMax =  -3.31303838293368E+03  1.70782153262943E+00
 cg2d: Sum(rhs),rhsMax =  -3.37519920549790E+03  1.67636869539001E+00
 cg2d: Sum(rhs),rhsMax =  -3.47160086477465E+03  1.62981820468270E+00
 cg2d: Sum(rhs),rhsMax =  -3.60675952710310E+03  1.56874286912785E+00
 cg2d: Sum(rhs),rhsMax =  -3.54998108127309E+03  1.59383336397185E+00
 cg2d: Sum(rhs),rhsMax =  -3.34245786900272E+03  1.69278971061201E+00
 cg2d: Sum(rhs),rhsMax =  -3.17616029412292E+03  1.78142088712320E+00
 cg2d: Sum(rhs),rhsMax =  -3.05145704910699E+03  1.85422183492891E+00
 cg2d: Sum(rhs),rhsMax =  -2.96218416031599E+03  1.91010348532765E+00
 cg2d: Sum(rhs),rhsMax =  -2.90332318342945E+03  1.94882826724048E+00
 cg2d: Sum(rhs),rhsMax =  -2.87274106161873E+03  1.96957476063426E+00
 cg2d: Sum(rhs),rhsMax =  -2.86885609793434E+03  1.97224193045999E+00
 cg2d: Sum(rhs),rhsMax =  -2.89232829312921E+03  1.95623653865393E+00
 cg2d: Sum(rhs),rhsMax =  -2.93995610991524E+03  1.92454515552787E+00
 cg2d: Sum(rhs),rhsMax =  -3.01578102228144E+03  1.87615687180151E+00
 cg2d: Sum(rhs),rhsMax =  -3.12333611940581E+03  1.81154959712704E+00
 cg2d: Sum(rhs),rhsMax =  -3.25912594906753E+03  1.73607230196819E+00
 cg2d: Sum(rhs),rhsMax =  -3.27418021432086E+03  1.72809006176697E+00
 cg2d: Sum(rhs),rhsMax =  -3.30920078414482E+03  1.70980205127206E+00
 cg2d: Sum(rhs),rhsMax =  -3.36285120382869E+03  1.68252412784725E+00
 cg2d: Sum(rhs),rhsMax =  -3.43451693635899E+03  1.64741603947371E+00
 cg2d: Sum(rhs),rhsMax =  -3.38488428603865E+03  1.67157214565335E+00
 cg2d: Sum(rhs),rhsMax =  -3.17215328661089E+03  1.78367114624747E+00
 cg2d: Sum(rhs),rhsMax =  -3.01377637314491E+03  1.87740481982001E+00
 cg2d: Sum(rhs),rhsMax =  -2.90215180961652E+03  1.94961485820743E+00
 cg2d: Sum(rhs),rhsMax =  -2.83245715704477E+03  1.99758653885705E+00
 cg2d: Sum(rhs),rhsMax =  -2.80228730927798E+03  2.01909285677768E+00
 cg2d: Sum(rhs),rhsMax =  -2.80998127053873E+03  2.01356441344435E+00
 cg2d: Sum(rhs),rhsMax =  -2.85630962570691E+03  1.98090509441938E+00
 cg2d: Sum(rhs),rhsMax =  -2.94448709246787E+03  1.92158366164197E+00
 cg2d: Sum(rhs),rhsMax =  -3.07829259424906E+03  1.83805733716557E+00
 cg2d: Sum(rhs),rhsMax =  -3.10790124125301E+03  1.82054635897013E+00
 cg2d: Sum(rhs),rhsMax =  -3.02160612488393E+03  1.87253998534282E+00
 cg2d: Sum(rhs),rhsMax =  -2.96331790067694E+03  1.90937269589247E+00
 cg2d: Sum(rhs),rhsMax =  -2.93087279867806E+03  1.93050967321200E+00
 cg2d: Sum(rhs),rhsMax =  -2.92109223311976E+03  1.93697351444430E+00
 cg2d: Sum(rhs),rhsMax =  -2.93296151790785E+03  1.92913485371536E+00
 cg2d: Sum(rhs),rhsMax =  -2.96829208488308E+03  1.90617302037673E+00
 cg2d: Sum(rhs),rhsMax =  -3.02634720094698E+03  1.86960646386886E+00
 cg2d: Sum(rhs),rhsMax =  -3.10771341647537E+03  1.82065638961622E+00
 cg2d: Sum(rhs),rhsMax =  -3.21601904674238E+03  1.75934228204687E+00
 cg2d: Sum(rhs),rhsMax =  -3.35421262619926E+03  1.68685736992566E+00
 cg2d: Sum(rhs),rhsMax =  -3.52736946446910E+03  1.60405036835389E+00
 cg2d: Sum(rhs),rhsMax =  -3.67154115295256E+03  1.54106356243667E+00
 cg2d: Sum(rhs),rhsMax =  -3.67913831146756E+03  1.53788137596409E+00
 cg2d: Sum(rhs),rhsMax =  -3.51503793895191E+03  1.60967772953512E+00
 cg2d: Sum(rhs),rhsMax =  -3.40640562729808E+03  1.66101131452447E+00
 cg2d: Sum(rhs),rhsMax =  -3.34655527565031E+03  1.69071711738048E+00
 cg2d: Sum(rhs),rhsMax =  -3.33354496912038E+03  1.69731572281592E+00
 cg2d: Sum(rhs),rhsMax =  -3.36550655360544E+03  1.68119663375502E+00
 cg2d: Sum(rhs),rhsMax =  -3.44407516289804E+03  1.64284402087233E+00
 cg2d: Sum(rhs),rhsMax =  -3.57290367916923E+03  1.58360784305205E+00
 cg2d: Sum(rhs),rhsMax =  -3.75802832175051E+03  1.50559756456714E+00
 cg2d: Sum(rhs),rhsMax =  -3.99233120027372E+03  1.41723669830148E+00
 cg2d: Sum(rhs),rhsMax =  -4.17006695428487E+03  1.35683152113135E+00
 cg2d: Sum(rhs),rhsMax =  -4.16873995836338E+03  1.35726342859324E+00
 cg2d: Sum(rhs),rhsMax =  -4.12073590970782E+03  1.37307471596818E+00
 cg2d: Sum(rhs),rhsMax =  -4.06788877738117E+03  1.39091273101240E+00
 cg2d: Sum(rhs),rhsMax =  -3.99013695754937E+03  1.41801606035021E+00
 cg2d: Sum(rhs),rhsMax =  -3.76764347220253E+03  1.50175522990615E+00
 cg2d: Sum(rhs),rhsMax =  -3.60219751631419E+03  1.57072960690710E+00
 cg2d: Sum(rhs),rhsMax =  -3.48875971411612E+03  1.62180223129394E+00
 cg2d: Sum(rhs),rhsMax =  -3.42231040594770E+03  1.65329196292909E+00
 cg2d: Sum(rhs),rhsMax =  -3.40031649595180E+03  1.66398577765866E+00
 cg2d: Sum(rhs),rhsMax =  -3.42328808789981E+03  1.65281978715182E+00
 cg2d: Sum(rhs),rhsMax =  -3.49514160335932E+03  1.61884093147005E+00
 cg2d: Sum(rhs),rhsMax =  -3.51797476498672E+03  1.60833396109460E+00
 cg2d: Sum(rhs),rhsMax =  -3.49849758360645E+03  1.61728803681758E+00
 cg2d: Sum(rhs),rhsMax =  -3.49989249404302E+03  1.61664345360100E+00
 cg2d: Sum(rhs),rhsMax =  -3.52254845986563E+03  1.60624569207992E+00
 cg2d: Sum(rhs),rhsMax =  -3.56660970899135E+03  1.58640242427929E+00
 cg2d: Sum(rhs),rhsMax =  -3.63455872817349E+03  1.55674421902802E+00
 cg2d: Sum(rhs),rhsMax =  -3.73045700279049E+03  1.51672523891028E+00
 cg2d: Sum(rhs),rhsMax =  -3.85463888617004E+03  1.46786208926143E+00
 cg2d: Sum(rhs),rhsMax =  -4.01133410996391E+03  1.41052281702180E+00
 cg2d: Sum(rhs),rhsMax =  -4.07591017119359E+03  1.38817541387204E+00
 cg2d: Sum(rhs),rhsMax =  -4.00445148806588E+03  1.41294714286444E+00
 cg2d: Sum(rhs),rhsMax =  -3.94729932980290E+03  1.43340492221664E+00
 cg2d: Sum(rhs),rhsMax =  -3.91726398907439E+03  1.44439545166801E+00
 cg2d: Sum(rhs),rhsMax =  -3.91439866353385E+03  1.44545274386894E+00
 cg2d: Sum(rhs),rhsMax =  -3.93918485634582E+03  1.43635764635088E+00
 cg2d: Sum(rhs),rhsMax =  -3.99339947930794E+03  1.41685757163029E+00
 cg2d: Sum(rhs),rhsMax =  -4.08124769901749E+03  1.38635993354778E+00
 cg2d: Sum(rhs),rhsMax =  -4.15387210247477E+03  1.36212144938959E+00
 cg2d: Sum(rhs),rhsMax =  -4.09256080749658E+03  1.38252760433949E+00
 cg2d: Sum(rhs),rhsMax =  -4.06140480786437E+03  1.39313330152311E+00
 cg2d: Sum(rhs),rhsMax =  -3.93373440697099E+03  1.43834781493515E+00
 cg2d: Sum(rhs),rhsMax =  -3.69470264902915E+03  1.53140288306792E+00
 cg2d: Sum(rhs),rhsMax =  -3.51269223563281E+03  1.61075263907446E+00
 cg2d: Sum(rhs),rhsMax =  -3.37510090139642E+03  1.67641752175793E+00
 cg2d: Sum(rhs),rhsMax =  -3.27397486677968E+03  1.72819844960120E+00
 cg2d: Sum(rhs),rhsMax =  -3.20368042305204E+03  1.76611819583792E+00
 cg2d: Sum(rhs),rhsMax =  -3.16080751230990E+03  1.79007366527898E+00
 cg2d: Sum(rhs),rhsMax =  -3.14290256562972E+03  1.80027161855979E+00
 cg2d: Sum(rhs),rhsMax =  -3.14884503499508E+03  1.79687416367594E+00
 cg2d: Sum(rhs),rhsMax =  -3.17908046439020E+03  1.77978454845031E+00
 cg2d: Sum(rhs),rhsMax =  -3.23431267058992E+03  1.74939125096088E+00
 cg2d: Sum(rhs),rhsMax =  -3.31638160943271E+03  1.70609988690951E+00
 cg2d: Sum(rhs),rhsMax =  -3.42856858086597E+03  1.65027420491990E+00
 cg2d: Sum(rhs),rhsMax =  -3.57457478222114E+03  1.58286751110748E+00
 cg2d: Sum(rhs),rhsMax =  -3.61207347461143E+03  1.56643499324459E+00
 cg2d: Sum(rhs),rhsMax =  -3.50466746753890E+03  1.61444083959704E+00
 cg2d: Sum(rhs),rhsMax =  -3.40988775992663E+03  1.65931511156944E+00
 cg2d: Sum(rhs),rhsMax =  -3.32807845937600E+03  1.70010363573664E+00
 cg2d: Sum(rhs),rhsMax =  -3.25750937642572E+03  1.73693384576232E+00
 cg2d: Sum(rhs),rhsMax =  -3.19769030737748E+03  1.76942660011447E+00
 cg2d: Sum(rhs),rhsMax =  -3.14857977695959E+03  1.79702554472532E+00
 cg2d: Sum(rhs),rhsMax =  -3.11001371952215E+03  1.81930975200691E+00
 cg2d: Sum(rhs),rhsMax =  -3.08187211185368E+03  1.83592247940448E+00
 cg2d: Sum(rhs),rhsMax =  -3.06380036772924E+03  1.84675161880585E+00
 cg2d: Sum(rhs),rhsMax =  -3.05534708539976E+03  1.85186105887595E+00
 cg2d: Sum(rhs),rhsMax =  -3.05825989625128E+03  1.85009727124154E+00
 cg2d: Sum(rhs),rhsMax =  -3.07249165763738E+03  1.84152763270731E+00
 cg2d: Sum(rhs),rhsMax =  -3.09891422919032E+03  1.82582603787659E+00
 cg2d: Sum(rhs),rhsMax =  -3.13794946500227E+03  1.80311325975985E+00
 cg2d: Sum(rhs),rhsMax =  -3.19026868401997E+03  1.77354287340850E+00
 cg2d: Sum(rhs),rhsMax =  -3.25779234221599E+03  1.73678297891548E+00
 cg2d: Sum(rhs),rhsMax =  -3.34199117932921E+03  1.69302609887127E+00
 cg2d: Sum(rhs),rhsMax =  -3.44530137978453E+03  1.64225931641306E+00
 cg2d: Sum(rhs),rhsMax =  -3.57177472284101E+03  1.58410838528513E+00
 cg2d: Sum(rhs),rhsMax =  -3.72406985446783E+03  1.51932657278537E+00
 cg2d: Sum(rhs),rhsMax =  -3.90429807379727E+03  1.44919219328430E+00
 cg2d: Sum(rhs),rhsMax =  -3.77750312697958E+03  1.49783550101943E+00
 cg2d: Sum(rhs),rhsMax =  -3.68729150681230E+03  1.53448087257234E+00
 cg2d: Sum(rhs),rhsMax =  -3.62997467728090E+03  1.55871012660623E+00
 cg2d: Sum(rhs),rhsMax =  -3.60189149152939E+03  1.57086305961967E+00
 cg2d: Sum(rhs),rhsMax =  -3.60113676945958E+03  1.57119227927881E+00
 cg2d: Sum(rhs),rhsMax =  -3.62781306113430E+03  1.55963887704644E+00
 cg2d: Sum(rhs),rhsMax =  -3.68106968316700E+03  1.53707448535286E+00
 cg2d: Sum(rhs),rhsMax =  -3.76262035938727E+03  1.50376007897946E+00
 cg2d: Sum(rhs),rhsMax =  -3.87637107984787E+03  1.45963277824887E+00
 cg2d: Sum(rhs),rhsMax =  -4.02714559342731E+03  1.40498478575904E+00
 cg2d: Sum(rhs),rhsMax =  -4.22177262277293E+03  1.34021388510630E+00
 cg2d: Sum(rhs),rhsMax =  -4.32995059329715E+03  1.30673045035681E+00
 cg2d: Sum(rhs),rhsMax =  -4.29848840083951E+03  1.31629488349832E+00
 cg2d: Sum(rhs),rhsMax =  -4.16581228432885E+03  1.35821729416056E+00
 cg2d: Sum(rhs),rhsMax =  -3.94038686826651E+03  1.43591948657850E+00
 cg2d: Sum(rhs),rhsMax =  -3.81087109977446E+03  1.48472045909314E+00
 cg2d: Sum(rhs),rhsMax =  -3.76271315525845E+03  1.50372299331260E+00
 cg2d: Sum(rhs),rhsMax =  -3.78710674293153E+03  1.49403718270220E+00
 cg2d: Sum(rhs),rhsMax =  -3.88308437267201E+03  1.45710928369772E+00
 cg2d: Sum(rhs),rhsMax =  -4.05649767055003E+03  1.39481857215876E+00
 cg2d: Sum(rhs),rhsMax =  -4.31861973288553E+03  1.31015894863737E+00
 cg2d: Sum(rhs),rhsMax =  -4.30744141361055E+03  1.31355896586862E+00
 cg2d: Sum(rhs),rhsMax =  -4.11053163785302E+03  1.37648333288519E+00
 cg2d: Sum(rhs),rhsMax =  -3.98002200097560E+03  1.42161985220559E+00
 cg2d: Sum(rhs),rhsMax =  -3.91111888767618E+03  1.44666486785415E+00
 cg2d: Sum(rhs),rhsMax =  -3.89765847523727E+03  1.45166086889064E+00
 cg2d: Sum(rhs),rhsMax =  -3.93078008735761E+03  1.43942885713697E+00
 cg2d: Sum(rhs),rhsMax =  -3.87973584565429E+03  1.45836688730743E+00
 cg2d: Sum(rhs),rhsMax =  -3.87850156329785E+03  1.45883099348062E+00
 cg2d: Sum(rhs),rhsMax =  -3.92696027252150E+03  1.44082901179157E+00
 cg2d: Sum(rhs),rhsMax =  -4.02705170579818E+03  1.40501754190426E+00
 cg2d: Sum(rhs),rhsMax =  -4.03529777609195E+03  1.40214640969609E+00
 cg2d: Sum(rhs),rhsMax =  -4.10054570127752E+03  1.37983544166796E+00
 cg2d: Sum(rhs),rhsMax =  -4.01874196935086E+03  1.40792276089223E+00
 cg2d: Sum(rhs),rhsMax =  -3.94533534375760E+03  1.43411847050068E+00
 cg2d: Sum(rhs),rhsMax =  -3.90174880130816E+03  1.45013904711264E+00
 cg2d: Sum(rhs),rhsMax =  -3.88785952365027E+03  1.45531963137640E+00
 cg2d: Sum(rhs),rhsMax =  -3.73215378924834E+03  1.51603567492364E+00
 cg2d: Sum(rhs),rhsMax =  -3.62569881270569E+03  1.56054834697633E+00
 cg2d: Sum(rhs),rhsMax =  -3.59829838079554E+03  1.57243165797468E+00
 cg2d: Sum(rhs),rhsMax =  -3.64758177682698E+03  1.55118613782632E+00
 cg2d: Sum(rhs),rhsMax =  -3.77883324182140E+03  1.49730827658188E+00
 cg2d: Sum(rhs),rhsMax =  -4.00714118508772E+03  1.41199873612091E+00
 cg2d: Sum(rhs),rhsMax =  -4.35575109504910E+03  1.29899026949292E+00
 cg2d: Sum(rhs),rhsMax =  -4.86823104173596E+03  1.16224522630387E+00
 cg2d: Sum(rhs),rhsMax =  -4.97296743085707E+03  1.13776701083819E+00
 cg2d: Sum(rhs),rhsMax =  -4.61246502234683E+03  1.22669294214465E+00
 cg2d: Sum(rhs),rhsMax =  -4.37825166032475E+03  1.29231454191517E+00
 cg2d: Sum(rhs),rhsMax =  -4.25145198379580E+03  1.33085785994230E+00
 cg2d: Sum(rhs),rhsMax =  -4.21541029677567E+03  1.34223667222375E+00
 cg2d: Sum(rhs),rhsMax =  -4.27016080609970E+03  1.32502698275898E+00
 cg2d: Sum(rhs),rhsMax =  -4.42067134154119E+03  1.27991380757777E+00
 cg2d: Sum(rhs),rhsMax =  -4.68742849923087E+03  1.20707511372820E+00
 cg2d: Sum(rhs),rhsMax =  -4.66311665835393E+03  1.21336837641956E+00
 cg2d: Sum(rhs),rhsMax =  -4.56653440900727E+03  1.23903112996184E+00
 cg2d: Sum(rhs),rhsMax =  -4.50708562773979E+03  1.25537403904157E+00
